data/irish_network/pylon_converted_mp_normalised/WinterPeak2019_pylon_mp_normalised.m
function mpc = WinterPeak2019_pylon_mp_normalised
%WINTERPEAK2019_PYLON_MP_NORMALISED

%% MATPOWER Case Format : Version 2
mpc.version = '2';

%%-----  Power Flow Data  -----%%
%% system MVA base
mpc.baseMVA = 100;

%% bus data
%	bus_i	type	Pd	Qd	Gs	Bs	area	Vm	Va	baseKV	zone	Vmax	Vmin
mpc.bus = [
	10	1	74.3	12.33	0	0	1	1.06215	-12.9187	38	1	1.1	0.9;
	11	1	46.07	9.16	0	0	1	1.07092	-10.8421	38	1	1.1	0.9;
	12	1	60.63	19.93	0	0	1	1.06917	-12.7523	38	1	1.1	0.9;
	13	1	50.62	16.8	0	0	1	1.06022	-12.1882	38	1	1.1	0.9;
	14	1	52.5	17.26	0	0	1	1.0544	-12.3975	38	1	1.1	0.9;
	15	1	68.54	22.52	0	0	1	1.06315	-12.8026	38	1	1.1	0.9;
	1021	1	0	0	0	0	1	1.05	-3.7156	110	1	1.1	0.9;
	1041	1	0.79	0.45	0	0	1	1.04022	0.9563	110	1	1.1	0.9;
	1042	1	0	0	0	0	1	1.04	4.165	220	1	1.1	0.9;
	1052	1	0	0	0	0	1	1.04081	4.0007	220	1	1.1	0.9;
	1061	1	0	0	0	0	1	1.05331	-8.7136	110	1	1.1	0.9;
	1062	1	0	0	0	0	1	1.04	4.165	220	1	1.1	0.9;
	1071	1	0	0	0	0	1	1.06112	-2.9203	110	1	1.1	0.9;
	1072	1	0	0	0	0	1	1.03996	4.1495	220	1	1.1	0.9;
	1081	1	0	0	0	0	1	1.04628	-3.4578	110	1	1.1	0.9;
	1091	1	0	0	0	0	1	1.03133	-11.0682	110	1	1.1	0.9;
	1101	1	16.62	4.98	0	0	1	1.05176	-6.0949	110	1	1.1	0.9;
	1121	1	0	0	0	0	1	1.06719	-5.3273	110	1	1.1	0.9;
	1122	1	0	0	0	0	1	1.06683	-4.2739	220	1	1.1	0.9;
	1131	1	0	0	0	0	1	1.04986	3.4677	110	1	1.1	0.9;
	1141	1	0	0	0	0	1	1.06369	-6.3173	110	1	1.1	0.9;
	1151	1	0	0	0	0	1	1.04986	3.4677	110	1	1.1	0.9;
	1161	1	0	0	0	0	1	1.05	-0.8029	110	1	1.1	0.9;
	1181	1	0	0	0	0	1	1.04211	-11.1535	110	1	1.1	0.9;
	1201	1	0	0	0	0	1	1.06315	-7.5586	110	1	1.1	0.9;
	1211	1	0	0	0	0	1	1.04837	4.1023	110	1	1.1	0.9;
	1212	1	0	0	0	0	1	1.054	3.1825	220	1	1.1	0.9;
	1221	1	0	0	0	0	1	1.05417	-5.8592	110	1	1.1	0.9;
	1231	1	0	0	0	0	1	1.06653	-4.5267	110	1	1.1	0.9;
	1251	1	0	0	0	0	1	1.05453	-2.9636	110	1	1.1	0.9;
	1271	1	0	0	0	0	1	1.04205	-8.7947	110	1	1.1	0.9;
	1281	1	0	0	0	0	1	1.04073	-1.2423	110	1	1.1	0.9;
	1301	1	0	0	0	0	1	1.06233	-6.2009	110	1	1.1	0.9;
	1311	1	0	0	0	0	1	1.0517	4.846	110	1	1.1	0.9;
	1321	1	0	0	0	0	1	1.04927	-7.5305	110	1	1.1	0.9;
	1341	1	0	0	0	0	1	1.03024	-11.7169	110	1	1.1	0.9;
	1351	1	0	0	0	0	1	1.04803	-7.9346	110	1	1.1	0.9;
	1361	1	0	0	0	0	1	1.04976	-5.6877	110	1	1.1	0.9;
	1381	1	0	0	0	0	1	1.03761	0.2831	110	1	1.1	0.9;
	1391	1	0	0	0	0	1	1.04827	-0.0995	110	1	1.1	0.9;
	1400	1	0	0	0	0	1	1.04249	-7.826	110	1	1.1	0.9;
	1401	1	0	0	0	0	1	1.04347	-10.365	110	1	1.1	0.9;
	1404	1	0	0	0	0	1	1.04179	-6.8255	380	1	1.1	0.9;
	1421	1	0	0	0	0	1	1.05448	-9.0368	110	1	1.1	0.9;
	1431	1	0	0	0	0	1	1.05033	-6.7237	110	1	1.1	0.9;
	1441	1	0	0	0	0	1	1.03392	-1.7709	110	1	1.1	0.9;
	1451	1	0	0	0	0	1	1.05245	-7.6894	110	1	1.1	0.9;
	1461	1	0	0	0	0	1	1.04177	-1.8371	110	1	1.1	0.9;
	1471	1	0	0	0	0	1	1.06157	-7.3691	110	1	1.1	0.9;
	1472	1	0	0	0	0	1	1.07472	-4.3822	220	1	1.1	0.9;
	1481	1	0	0	0	0	1	1.05566	-4.6524	110	1	1.1	0.9;
	1492	1	0	0	0	0	1	1.04104	-6.0407	220	1	1.1	0.9;
	1501	1	0	0	0	0	1	1.03372	-1.7837	110	1	1.1	0.9;
	1511	1	0	0	0	0	1	1.05	3.7655	110	1	1.1	0.9;
	1541	1	0	0	0	0	1	1.06248	-5.3188	110	1	1.1	0.9;
	1551	1	0	0	0	0	1	1.05	5.4302	110	1	1.1	0.9;
	1571	1	0	0	0	0	1	1.00626	-13.2371	110	1	1.1	0.9;
	1581	1	0	0	0	0	1	1.06231	-7.6189	110	1	1.1	0.9;
	1601	1	0	0	0	0	1	1.04383	-0.4731	110	1	1.1	0.9;
	1602	1	0	0	0	0	1	1.04941	2.8083	220	1	1.1	0.9;
	1611	1	0	0	0	0	1	1.03815	-1.9963	110	1	1.1	0.9;
	1621	1	0	0	0	0	1	1.0407	-0.8687	110	1	1.1	0.9;
	1631	1	0	0	0	0	1	1.05632	-8.6789	110	1	1.1	0.9;
	1641	1	0	0	0	0	1	1.06424	-5.1373	110	1	1.1	0.9;
	1642	1	0	0	0	0	1	1.06785	-3.0121	220	1	1.1	0.9;
	1651	1	0	0	0	0	1	1.04992	-2.3713	110	1	1.1	0.9;
	1661	1	0	0	0	0	1	1.05	-9.9964	110	1	1.1	0.9;
	1681	1	0	0	0	0	1	1.04224	-0.6872	110	1	1.1	0.9;
	1691	1	0	0	0	0	1	1.05612	-8.893	110	1	1.1	0.9;
	1701	1	0	0	0	0	1	1.05	-10.5481	110	1	1.1	0.9;
	1711	1	0	0	0	0	1	1.06029	-7.4649	110	1	1.1	0.9;
	1721	1	0	0	0	0	1	1.05906	-5.3441	110	1	1.1	0.9;
	1731	1	0	0	0	0	1	1.06029	-7.4649	110	1	1.1	0.9;
	1741	1	0	0	0	0	1	1.05625	-8.8503	110	1	1.1	0.9;
	1742	1	0	0	0	0	1	1.06782	-5.3966	220	1	1.1	0.9;
	1761	1	0	0	0	0	1	1.05108	-10.3578	110	1	1.1	0.9;
	1781	1	0	0	0	0	1	1.0496	-0.8238	110	1	1.1	0.9;
	1791	1	0	0	0	0	1	1.04893	-7.0901	110	1	1.1	0.9;
	1801	1	0	0	0	0	1	1.05917	-6.757	110	1	1.1	0.9;
	1821	1	0	0	0	0	1	1.05321	-7.0771	110	1	1.1	0.9;
	1831	1	0	0	0	0	1	1.04381	-6.5914	110	1	1.1	0.9;
	1841	1	0	0	0	0	1	1.06519	-4.7208	110	1	1.1	0.9;
	1851	1	0	0	0	0	1	1.05328	-9.006	110	1	1.1	0.9;
	1861	1	0	0	0	0	1	1.05358	-8.8999	110	1	1.1	0.9;
	1871	1	0	0	0	0	1	1.05482	-7.5004	110	1	1.1	0.9;
	1881	1	0	0	0	0	1	1.02463	-3.8787	110	1	1.1	0.9;
	1891	1	0	0	0	0	1	1.03094	-9.802	110	1	1.1	0.9;
	1901	1	0	0	0	0	1	1.05878	-5.543	110	1	1.1	0.9;
	1911	1	0	0	0	0	1	1.06373	-6.3184	110	1	1.1	0.9;
	1921	1	0	0	0	0	1	1.03664	0.1962	110	1	1.1	0.9;
	1931	1	0	0	0	0	1	1.05128	-9.5861	110	1	1.1	0.9;
	1941	1	0	0	0	0	1	1.075	-4.3195	110	1	1.1	0.9;
	1951	1	0	0	0	0	1	1.03839	-10.9045	110	1	1.1	0.9;
	1961	1	0	0	0	0	1	1.03666	-0.1294	110	1	1.1	0.9;
	1971	1	0	0	0	0	1	1.05	5.4912	110	1	1.1	0.9;
	1981	1	0	0	0	0	1	1.04226	-12.4902	110	1	1.1	0.9;
	1991	1	0	0	0	0	1	1.06703	-3.8515	110	1	1.1	0.9;
	2001	1	0	0	0	0	1	1.05872	-4.0933	110	1	1.1	0.9;
	2002	1	0	0	0	0	1	1.06718	-0.9403	220	1	1.1	0.9;
	2011	1	0	0	0	0	1	1.04224	-0.6872	110	1	1.1	0.9;
	2021	1	0	0	0	0	1	1.01183	-12.3194	110	1	1.1	0.9;
	2041	1	0	0	0	0	1	1.05535	-7.4192	110	1	1.1	0.9;
	2042	1	0	0	0	0	1	1.075	-3.9019	220	1	1.1	0.9;
	2051	1	0	0	0	0	1	1.03403	-1.0638	110	1	1.1	0.9;
	2052	1	0	0	0	0	1	1.075	-3.9019	220	1	1.1	0.9;
	2081	4	0	0	0	0	1	1	0	110	1	1.1	0.9;
	2090	1	0	0	0	0	1	1.05249	-4.2574	110	1	1.1	0.9;
	2091	1	0	0	0	0	1	1.05144	-6.0325	110	1	1.1	0.9;
	2101	1	0	0	0	0	1	1.03417	-9.7222	110	1	1.1	0.9;
	2111	1	0	0	0	0	1	1.05	-3.5983	110	1	1.1	0.9;
	2121	1	0	0	0	0	1	1.0475	-4.5881	110	1	1.1	0.9;
	2131	1	0	0	0	0	1	1.05	3.5584	110	1	1.1	0.9;
	2141	1	0	0	0	0	1	1.03809	-4.0248	110	1	1.1	0.9;
	2161	1	0	0	0	0	1	1.05258	-6.0435	110	1	1.1	0.9;
	2181	1	0	0	0	0	1	1.02999	-9.9116	110	1	1.1	0.9;
	2202	1	0	0	0	0	1	1.07362	-4.2766	220	1	1.1	0.9;
	2204	1	0	0	0	0	1	1.05298	-2.8046	380	1	1.1	0.9;
	2221	1	0	0	0	0	1	1.03833	-1.3285	110	1	1.1	0.9;
	2231	1	0	0	0	0	1	1.06173	-2.5101	110	1	1.1	0.9;
	2241	1	0	0	0	0	1	1.06393	-4.619	110	1	1.1	0.9;
	2251	1	0	0	0	0	1	1.06039	-7.4618	110	1	1.1	0.9;
	2261	1	0	0	0	0	1	1.04491	-7.7118	110	1	1.1	0.9;
	2281	1	0	0	0	0	1	1.04611	-8.5713	110	1	1.1	0.9;
	2301	1	0	0	0	0	1	1.04795	-8.1247	110	1	1.1	0.9;
	2321	1	0	0	0	0	1	1.03048	-12.6718	110	1	1.1	0.9;
	2361	1	0	0	0	0	1	1.04734	-4.3621	110	1	1.1	0.9;
	2391	1	0	0	0	0	1	1.06063	-5.0866	110	1	1.1	0.9;
	2401	1	0	0	0	0	1	1.05529	-4.8844	110	1	1.1	0.9;
	2411	1	0	0	0	0	1	1.05951	-4.5472	110	1	1.1	0.9;
	2481	1	0	0	0	0	1	1.05188	-7.0009	110	1	1.1	0.9;
	2491	1	0	0	0	0	1	1.05223	-6.9851	110	1	1.1	0.9;
	2521	1	0	0	0	0	1	1.05527	-8.7392	110	1	1.1	0.9;
	2522	1	0	0	0	0	1	1.06991	-6.7687	220	1	1.1	0.9;
	2524	1	0	0	0	0	1	1.0324	-6.7798	380	1	1.1	0.9;
	2541	1	0	0	0	0	1	1.06283	-8.4136	110	1	1.1	0.9;
	2551	1	0	0	0	0	1	1.05929	-8.6589	110	1	1.1	0.9;
	2561	1	0	0	0	0	1	1.06495	-7.3777	110	1	1.1	0.9;
	2562	1	0	0	0	0	1	1.075	-4.074	220	1	1.1	0.9;
	2563	1	0	0	0	0	1	1.075	-4.074	220	1	1.1	0.9;
	2571	1	0	0	0	0	1	1.06027	-7.3693	110	1	1.1	0.9;
	2581	1	0	0	0	0	1	1.05397	-7.5886	110	1	1.1	0.9;
	2671	1	0	0	0	0	1	1.0562	-8.4771	110	1	1.1	0.9;
	2681	1	0	0	0	0	1	1.05724	-9.0249	110	1	1.1	0.9;
	2701	1	0	0	0	0	1	1.03627	-8.6742	110	1	1.1	0.9;
	2721	1	0	0	0	0	1	1.04995	-7.82	110	1	1.1	0.9;
	2731	1	0	0	0	0	1	1.04988	5.5116	110	1	1.1	0.9;
	2741	1	0	0	0	0	1	1.06424	-4.1807	110	1	1.1	0.9;
	2742	1	0	0	0	0	1	1.075	-0.7802	220	1	1.1	0.9;
	2761	1	0	0	0	0	1	1.05975	-7.4905	110	1	1.1	0.9;
	2771	1	0	0	0	0	1	1.04885	4.8091	110	1	1.1	0.9;
	2780	1	0	0	0	0	1	1.05473	-5.5269	110	1	1.1	0.9;
	2781	1	0	0	0	0	1	1.05473	-5.5269	110	1	1.1	0.9;
	2801	1	0	0	0	0	1	1.04442	-11.1915	110	1	1.1	0.9;
	2821	1	0	0	0	0	1	1.04148	-12.5824	110	1	1.1	0.9;
	2841	1	0	0	0	0	1	1.02821	-9.937	110	1	1.1	0.9;
	2842	1	0	0	0	0	1	1.04554	-6.6727	220	1	1.1	0.9;
	2852	1	0	0	0	0	1	1.0406	4.0953	220	1	1.1	0.9;
	2861	1	0	0	0	0	1	1.03154	-11.0539	110	1	1.1	0.9;
	2870	1	0	0	0	0	1	1.0469	-11.1258	110	1	1.1	0.9;
	2871	1	0	0	0	0	1	1.0469	-11.1258	110	1	1.1	0.9;
	2881	1	0	0	0	0	1	1.01584	-4.3003	110	1	1.1	0.9;
	2941	1	0	0	0	0	1	1.06383	-8.3975	110	1	1.1	0.9;
	2951	1	0	0	0	0	1	1.05957	-8.6405	110	1	1.1	0.9;
	2962	1	0	0	0	0	1	1.07525	-3.9774	220	1	1.1	0.9;
	2972	1	0	0	0	0	1	1.07584	-3.6365	220	1	1.1	0.9;
	2981	1	0	0	0	0	1	1.04109	-0.7453	110	1	1.1	0.9;
	3061	1	0	0	0	0	1	1.04224	-0.7794	110	1	1.1	0.9;
	3081	1	0	0	0	0	1	1.06005	-8.5956	110	1	1.1	0.9;
	3082	1	0	0	0	0	1	1.07101	-6.1097	220	1	1.1	0.9;
	3091	1	0	0	0	0	1	1.03665	-10.8333	110	1	1.1	0.9;
	3101	1	0	0	0	0	1	1.05798	-5.3113	110	1	1.1	0.9;
	3122	1	0	0	0	0	1	1.07436	-5.2337	220	1	1.1	0.9;
	3190	1	0	0	0	0	1	1.05058	-2.2457	110	1	1.1	0.9;
	3191	1	0	0	0	0	1	1.0528	2.8273	110	1	1.1	0.9;
	3192	1	0	0	0	0	1	1.06893	1.3864	220	1	1.1	0.9;
	3194	1	0	0	0	0	1	1.07424	1.5425	380	1	1.1	0.9;
	3200	1	0	0	0	0	1	1.04071	-0.013	110	1	1.1	0.9;
	3201	1	0	0	0	0	1	1.04071	-0.013	110	1	1.1	0.9;
	3202	1	0	0	0	0	1	1.04254	2.6135	220	1	1.1	0.9;
	3203	1	0	0	0	0	1	1.04557	2.0613	220	1	1.1	0.9;
	3209	1	0	0	0	0	1	1.04071	-0.013	110	1	1.1	0.9;
	3211	1	0	0	0	0	1	1.06125	-2.5765	110	1	1.1	0.9;
	3221	1	0	0	0	0	1	1.03407	-1.0611	110	1	1.1	0.9;
	3241	1	0	0	0	0	1	1.05168	-8.6431	110	1	1.1	0.9;
	3251	1	0	0	0	0	1	1.04896	-2.4793	110	1	1.1	0.9;
	3261	1	0	0	0	0	1	1.05373	-6.863	110	1	1.1	0.9;
	3281	1	0	0	0	0	1	1.04665	-3.421	110	1	1.1	0.9;
	3282	1	0	0	0	0	1	1.05434	-1.5348	220	1	1.1	0.9;
	3301	1	0	0	0	0	1	1.03409	-3.038	110	1	1.1	0.9;
	3321	1	0	0	0	0	1	1.0187	-10.573	110	1	1.1	0.9;
	3330	1	0	0	0	0	1	1.0506	4.3855	110	1	1.1	0.9;
	3331	1	0	0	0	0	1	1.0506	4.3855	110	1	1.1	0.9;
	3332	1	0	0	0	0	1	1.05756	3.0969	220	1	1.1	0.9;
	3341	1	0	0	0	0	1	1.06478	-5.4546	110	1	1.1	0.9;
	3342	1	0	0	0	0	1	1.06005	-3.4815	220	1	1.1	0.9;
	3361	1	0	0	0	0	1	1.02134	-13.4571	110	1	1.1	0.9;
	3381	1	0	0	0	0	1	1.04512	-8.3241	110	1	1.1	0.9;
	3391	1	0	0	0	0	1	1.05	5.4648	110	1	1.1	0.9;
	3401	1	0	0	0	0	1	1.05666	-4.6052	110	1	1.1	0.9;
	3421	1	0	0	0	0	1	1.06027	-7.4645	110	1	1.1	0.9;
...
];

%% generator data
%	bus	Pg	Qg	Qmax	Qmin	Vg	mBase	status	Pmax	Pmin	Pc1	Pc2	Qc1min	Qc1max	Qc2min	Qc2max	ramp_agc	ramp_10	ramp_30	ramp_q	apf	mu_Pmax	mu_Pmin	mu_Qmax	mu_Qmin
mpc.gen = [
	10271	21	8.596	15	-7	1.05	34	1	21	5	0	0	0	0	0	0	0	0	0	0	0	0.0000	0.0000	0.0000	0.0000;
	10272	22	8.596	15	-7	1.05	34	1	22	5	0	0	0	0	0	0	0	0	0	0	0	0.0000	0.0000	0.0000	0.0000;
	10273	19	8.596	15	-7	1.05	34	1	19	5	0	0	0	0	0	0	0	0	0	0	0	0.0000	0.0000	0.0000	0.0000;
	10274	24	8.596	15	-7	1.05	34	1	24	5	0	0	0	0	0	0	0	0	0	0	0	0.0000	0.0000	0.0000	0.0000;
	10275	2.297	0	0	0	1.05	8.35	1	7.5	0	0	0	0	0	0	0	0	0	0	0	0	0.0000	0.0000	0.0000	0.0000;
	10276	0.202	0	0	0	1.05	0.85	1	0.66	0	0	0	0	0	0	0	0	0	0	0	0	0.0000	0.0000	0.0000	0.0000;
	10470	330	-50.171	270	-170	1.04	500	1	443	222	0	0	0	0	0	0	0	0	0	0	0	0.0000	0.0000	0.0000	0.0000;
	10471	270	0	159	-75	1.075	318.8	0	270	40	0	0	0	0	0	0	0	0	0	0	0	0.0000	0.0000	0.0000	0.0000;
	10472	90	0	60	-30	1.075	100.9	0	90	13	0	0	0	0	0	0	0	0	0	0	0	0.0000	0.0000	0.0000	0.0000;
	10473	90	0	60	-30	1.075	100.9	0	90	13	0	0	0	0	0	0	0	0	0	0	0	0.0000	0.0000	0.0000	0.0000;
	10474	90	0	60	-30	1.075	100.9	0	90	13	0	0	0	0	0	0	0	0	0	0	0	0.0000	0.0000	0.0000	0.0000;
	10671	1.47	-1.94	-1.94	-1.94	1.04	4.8	1	4.8	0	0	0	0	0	0	0	0	0	0	0	0	0.0000	0.0000	0.0000	0.0000;
	10672	1.532	-2	-2	-2	1.04	6	1	5	0	0	0	0	0	0	0	0	0	0	0	0	0.0000	0.0000	0.0000	0.0000;
	10673	0.368	-0.48	-0.48	-0.48	1.05	1.2	1	1.2	0	0	0	0	0	0	0	0	0	0	0	0	0.0000	0.0000	0.0000	0.0000;
	10674	1.409	-1.824	-1.77	-2.3	1.04	4.6	1	4.6	0	0	0	0	0	0	0	0	0	0	0	0	0.0000	0.0000	0.0000	0.0000;
	11204	1	0	0	0	1	1.6	0	1	0	0	0	0	0	0	0	0	0	0	0	0	0.0000	0.0000	0.0000	0.0000;
	11271	7.719	0	0	0	1.04	28	1	25.2	0	0	0	0	0	0	0	0	0	0	0	0	0.0000	0.0000	0.0000	0.0000;
	11370	6.739	-3.067	5.59	-5.59	1.05	30	1	22	0	0	0	0	0	0	0	0	0	0	0	0	0.0000	0.0000	0.0000	0.0000;
	11371	15.622	-10.761	20	-20	1.05	66	1	51	0	0	0	0	0	0	0	0	0	0	0	0	0.0000	0.0000	0.0000	0.0000;
	11374	1.225	-0.667	1.31	-1.31	1.05	4	1	4	0	0	0	0	0	0	0	0	0	0	0	0	0.0000	0.0000	0.0000	0.0000;
	11375	1.103	-0.603	1.18	-1.18	1.05	4	1	3.6	0	0	0	0	0	0	0	0	0	0	0	0	0.0000	0.0000	0.0000	0.0000;
	12371	9.649	-7	7	-7	1.05	32	1	31.5	0	0	0	0	0	0	0	0	0	0	0	0	0.0000	0.0000	0.0000	0.0000;
	12372	3.216	0	0	0	1.05	10	1	10.5	0	0	0	0	0	0	0	0	0	0	0	0	0.0000	0.0000	0.0000	0.0000;
	12571	5.958	0	0	0	1.05	25.05	1	19.45	0	0	0	0	0	0	0	0	0	0	0	0	0.0000	0.0000	0.0000	0.0000;
	12572	0.919	-0.99	0.99	-0.99	1.05	3.34	1	3	0	0	0	0	0	0	0	0	0	0	0	0	0.0000	0.0000	0.0000	0.0000;
	12573	2.757	-2.96	2.96	-2.96	1.05	10.02	1	9	0	0	0	0	0	0	0	0	0	0	0	0	0.0000	0.0000	0.0000	0.0000;
	12871	0.705	0	0	-0.66	1.05	2.3	1	2.3	0	0	0	0	0	0	0	0	0	0	0	0	0.0000	0.0000	0.0000	0.0000;
	12872	2.573	0	0	-2.76	1.05	9.2	1	8.4	0	0	0	0	0	0	0	0	0	0	0	0	0.0000	0.0000	0.0000	0.0000;
	12873	5.988	0	0	0	1.05	20.7	1	19.55	0	0	0	0	0	0	0	0	0	0	0	0	0.0000	0.0000	0.0000	0.0000;
	12874	2.604	0	0	0	1.05	8.5	1	8.5	0	0	0	0	0	0	0	0	0	0	0	0	0.0000	0.0000	0.0000	0.0000;
	13170	7.336	0	0	0	1.05	25.3	1	23.95	0	0	0	0	0	0	0	0	0	0	0	0	0.0000	0.0000	0.0000	0.0000;
	13171	3.063	0	0	0	1.05	10	1	10	0	0	0	0	0	0	0	0	0	0	0	0	0.0000	0.0000	0.0000	0.0000;
	13173	2.604	0	0	0	1.05	10.5	1	8.5	0	0	0	0	0	0	0	0	0	0	0	0	0.0000	0.0000	0.0000	0.0000;
	13174	10.981	0	0	0	1.05	36	1	35.85	0	0	0	0	0	0	0	0	0	0	0	0	0.0000	0.0000	0.0000	0.0000;
	13175	3.523	0	0	0	1.05	11.5	1	11.5	0	0	0	0	0	0	0	0	0	0	0	0	0.0000	0.0000	0.0000	0.0000;
	13176	5.514	0	0	0	1.05	18.75	1	18	0	0	0	0	0	0	0	0	0	0	0	0	0.0000	0.0000	0.0000	0.0000;
	13434	4.3	0	0	0	1	4.5	1	4.3	0	0	0	0	0	0	0	0	0	0	0	0	0.0000	0.0000	0.0000	0.0000;
	13471	0.202	0	0	0	1.05	0.66	1	0.66	0	0	0	0	0	0	0	0	0	0	0	0	0.0000	0.0000	0.0000	0.0000;
	13472	0.781	0	0	-0.84	1.05	2.7	1	2.55	0	0	0	0	0	0	0	0	0	0	0	0	0.0000	0.0000	0.0000	0.0000;
	13473	3.063	0	0	0	1.05	10	1	10	0	0	0	0	0	0	0	0	0	0	0	0	0.0000	0.0000	0.0000	0.0000;
	13474	1.838	0	0	0	1.05	6.25	1	6	0	0	0	0	0	0	0	0	0	0	0	0	0.0000	0.0000	0.0000	0.0000;
	13475	2.343	0	0	0	1.05	7.65	1	7.65	0	0	0	0	0	0	0	0	0	0	0	0	0.0000	0.0000	0.0000	0.0000;
	13476	3.645	0	0	0	1.05	11.5	1	11.9	0	0	0	0	0	0	0	0	0	0	0	0	0.0000	0.0000	0.0000	0.0000;
	13477	0.781	0	0	0	1.05	2.7	1	2.55	0	0	0	0	0	0	0	0	0	0	0	0	0.0000	0.0000	0.0000	0.0000;
	13479	1.041	0	0	0	1	3.4	1	3.4	0	0	0	0	0	0	0	0	0	0	0	0	0.0000	0.0000	0.0000	0.0000;
	14073	1.976	-2.4	-2.4	-2.4	1.04	7.611	1	6.45	0	0	0	0	0	0	0	0	0	0	0	0	0.0000	0.0000	0.0000	0.0000;
	14075	10	0	0	0	1	10	0	10	1	0	0	0	0	0	0	0	0	0	0	0	0.0000	0.0000	0.0000	0.0000;
	14471	1.225	0	0	0	1.04	4	1	4	0	0	0	0	0	0	0	0	0	0	0	0	0.0000	0.0000	0.0000	0.0000;
	14472	0.085	0	0	0	1	0.85	1	0.85	0	0	0	0	0	0	0	0	0	0	0	0	0.0000	0.0000	0.0000	0.0000;
	14604	4.8	0	0	0	1.05	7	0	4.8	0	0	0	0	0	0	0	0	0	0	0	0	0.0000	0.0000	0.0000	0.0000;
	14871	0.521	0	0	0	1.05	4.6	1	1.7	0	0	0	0	0	0	0	0	0	0	0	0	0.0000	0.0000	0.0000	0.0000;
	14902	450	0	279	-178	1.075	540	0	450	225	0	0	0	0	0	0	0	0	0	0	0	0.0000	0.0000	0.0000	0.0000;
	15171	14.09	0.124	15.12	-15.12	1.05	46	1	46	0	0	0	0	0	0	0	0	0	0	0	0	0.0000	0.0000	0.0000	0.0000;
	15172	3.063	-3.29	3.29	-3.29	1	10	1	10	0	0	0	0	0	0	0	0	0	0	0	0	0.0000	0.0000	0.0000	0.0000;
	15173	0.781	-0.84	0.84	-0.84	1	2.55	1	2.55	0	0	0	0	0	0	0	0	0	0	0	0	0.0000	0.0000	0.0000	0.0000;
	15174	6.126	-6.57	6.57	-6.57	1	20	1	20	0	0	0	0	0	0	0	0	0	0	0	0	0.0000	0.0000	0.0000	0.0000;
	15571	1.823	-1.96	1.96	-1.96	1	5.95	1	5.95	0	0	0	0	0	0	0	0	0	0	0	0	0.0000	0.0000	0.0000	0.0000;
	15572	5.514	-3.43	5.92	-5.92	1	18.75	1	18	0	0	0	0	0	0	0	0	0	0	0	0	0.0000	0.0000	0.0000	0.0000;
	15573	6.126	0	0	0	1.04	23	1	20	0	0	0	0	0	0	0	0	0	0	0	0	0.0000	0.0000	0.0000	0.0000;
	15771	0.606	-0.3	-0.3	-0.3	1.04	1.98	1	1.98	0	0	0	0	0	0	0	0	0	0	0	0	0.0000	0.0000	0.0000	0.0000;
	15772	0.919	-1.92	-1.92	-1.92	1.04	3	1	3	0	0	0	0	0	0	0	0	0	0	0	0	0.0000	0.0000	0.0000	0.0000;
	16371	1.041	0	0	0	1	3.4	1	3.4	0	0	0	0	0	0	0	0	0	0	0	0	0.0000	0.0000	0.0000	0.0000;
	16372	1.041	0	0	0	1	3.4	1	3.4	0	0	0	0	0	0	0	0	0	0	0	0	0.0000	0.0000	0.0000	0.0000;
	16373	2.083	0	0	0	1	6.8	1	6.8	0	0	0	0	0	0	0	0	0	0	0	0	0.0000	0.0000	0.0000	0.0000;
	16374	2.343	0	0	0	1	7.65	1	7.65	0	0	0	0	0	0	0	0	0	0	0	0	0.0000	0.0000	0.0000	0.0000;
	16375	1.213	0	0	0	1	4.25	1	3.96	0	0	0	0	0	0	0	0	0	0	0	0	0.0000	0.0000	0.0000	0.0000;
	16376	1.516	0	0	0	1	5.1	1	4.95	0	0	0	0	0	0	0	0	0	0	0	0	0.0000	0.0000	0.0000	0.0000;
	16377	2.757	0	0	0	1	9.2	1	9	0	0	0	0	0	0	0	0	0	0	0	0	0.0000	0.0000	0.0000	0.0000;
	16378	0.49	0	0	0	1	1.7	1	1.6	0	0	0	0	0	0	0	0	0	0	0	0	0.0000	0.0000	0.0000	0.0000;
	16379	0.089	0	0	0	1	0.323	1	0.29	0	0	0	0	0	0	0	0	0	0	0	0	0.0000	0.0000	0.0000	0.0000;
	16571	11.578	0	0	0	1.05	40	1	37.8	0	0	0	0	0	0	0	0	0	0	0	0	0.0000	0.0000	0.0000	0.0000;
	16670	1.378	-1.418	0	-3.07	1	4.5	1	4.5	0	0	0	0	0	0	0	0	0	0	0	0	0.0000	0.0000	0.0000	0.0000;
	16671	1.041	0	0	0	1.04	3.4	1	3.4	0	0	0	0	0	0	0	0	0	0	0	0	0.0000	0.0000	0.0000	0.0000;
	16672	0.487	-0.56	-0.56	-0.56	1.04	1.7	1	1.59	0	0	0	0	0	0	0	0	0	0	0	0	0.0000	0.0000	0.0000	0.0000;
	16674	5.728	0	0	0	1.04	18.7	1	18.7	0	0	0	0	0	0	0	0	0	0	0	0	0.0000	0.0000	0.0000	0.0000;
	16675	2.45	-2.65	-2.65	-2.65	1.04	8	1	8	0	0	0	0	0	0	0	0	0	0	0	0	0.0000	0.0000	0.0000	0.0000;
	16677	1.041	0	0	0	1	3.4	1	3.4	0	0	0	0	0	0	0	0	0	0	0	0	0.0000	0.0000	0.0000	0.0000;
	16679	1.041	0	0	0	1	3.4	1	3.4	0	0	0	0	0	0	0	0	0	0	0	0	0.0000	0.0000	0.0000	0.0000;
	16873	8	7	7	-1	1.05	11.5	1	8	2	0	0	0	0	0	0	0	0	0	0	0	0.0000	0.0000	0.0000	0.0000;
	17073	22.5	0.565	23	-25	1.05	35.5	1	22.5	5	0	0	0	0	0	0	0	0	0	0	0	0.0000	0.0000	0.0000	0.0000;
	17074	22.5	0.565	23	-25	1.05	35.5	1	22.5	5	0	0	0	0	0	0	0	0	0	0	0	0.0000	0.0000	0.0000	0.0000;
	17075	0.606	-0.8	-0.8	-0.8	1	1.98	1	1.98	0	0	0	0	0	0	0	0	0	0	0	0	0.0000	0.0000	0.0000	0.0000;
	17077	0.006	0	0	0	1	1.2	1	0.02	0	0	0	0	0	0	0	0	0	0	0	0	0.0000	0.0000	0.0000	0.0000;
	17671	10	0.565	7	-3	1.05	12.5	1	10	3	0	0	0	0	0	0	0	0	0	0	0	0.0000	0.0000	0.0000	0.0000;
	17672	10	0.565	7	-3	1.05	12.5	1	10	3	0	0	0	0	0	0	0	0	0	0	0	0.0000	0.0000	0.0000	0.0000;
	18271	1.302	-1	-1	-1	1	4.25	1	4.25	0	0	0	0	0	0	0	0	0	0	0	0	0.0000	0.0000	0.0000	0.0000;
	18471	1.528	0	0	0	1.04	5.2	1	4.99	0	0	0	0	0	0	0	0	0	0	0	0	0.0000	0.0000	0.0000	0.0000;
	18472	0.766	-0.596	0	-0.82	1	2.978	1	2.5	0	0	0	0	0	0	0	0	0	0	0	0	0.0000	0.0000	0.0000	0.0000;
	18901	58	0	30	-21.32	1.075	68.235	0	58	20	0	0	0	0	0	0	0	0	0	0	0	0.0000	0.0000	0.0000	0.0000;
	19081	0.781	0	0	0	1.04	2.55	1	2.55	0	0	0	0	0	0	0	0	0	0	0	0	0.0000	0.0000	0.0000	0.0000;
	19082	0.521	0	0	0	1.05	1.7	1	1.7	0	0	0	0	0	0	0	0	0	0	0	0	0.0000	0.0000	0.0000	0.0000;
	19083	1.528	0	0	0	1.04	6.9	1	4.99	0	0	0	0	0	0	0	0	0	0	0	0	0.0000	0.0000	0.0000	0.0000;
	19084	1.378	-1.5	-1.5	-1.5	1.04	4.6	1	4.5	0	0	0	0	0	0	0	0	0	0	0	0	0.0000	0.0000	0.0000	0.0000;
	19085	6.432	-7	-7	-7	1.04	23.824	1	21	0	0	0	0	0	0	0	0	0	0	0	0	0.0000	0.0000	0.0000	0.0000;
	19101	98.4	0	51	-36.17	1.075	108.24	0	98.4	34	0	0	0	0	0	0	0	0	0	0	0	0.0000	0.0000	0.0000	0.0000;
	19317	0	-6	6	-6	1.05	6	1	0	0	0	0	0	0	0	0	0	0	0	0	0	0.0000	0.0000	0.0000	0.0000;
	19371	7.275	0	0	0	1.05	29.78	1	23.75	0	0	0	0	0	0	0	0	0	0	0	0	0.0000	0.0000	0.0000	0.0000;
	19372	3.385	0	0	0	1.05	11.05	1	11.05	0	0	0	0	0	0	0	0	0	0	0	0	0.0000	0.0000	0.0000	0.0000;
	19471	133	71.345	94	-50	1.075	153	1	133.5	60	0	0	0	0	0	0	0	0	0	0	0	0.0000	0.0000	0.0000	0.0000;
	19472	58.274	0	38	-23	1.075	66.625	0	58.274	19.7	0	0	0	0	0	0	0	0	0	0	0	0.0000	0.0000	0.0000	0.0000;
	19473	58.274	0	40	-23	1.075	66.625	0	58.274	19.7	0	0	0	0	0	0	0	0	0	0	0	0.0000	0.0000	0.0000	0.0000;
	19601	0.585	0	0	0	1	6.5	1	5.85	0	0	0	0	0	0	0	0	0	0	0	0	0.0000	0.0000	0.0000	0.0000;
	19771	13.018	0	0	0	1.05	46.875	1	42.5	0	0	0	0	0	0	0	0	0	0	0	0	0.0000	0.0000	0.0000	0.0000;
	19772	2.604	-1.203	2.79	-2.79	1.05	8.5	1	8.5	0	0	0	0	0	0	0	0	0	0	0	0	0.0000	0.0000	0.0000	0.0000;
	19773	9.189	-4.236	9.86	-9.86	1.05	38.714	1	30	0	0	0	0	0	0	0	0	0	0	0	0	0.0000	0.0000	0.0000	0.0000;
	19971	6.126	-6.7	6.7	-6.7	1.05	20.7	1	20	0	0	0	0	0	0	0	0	0	0	0	0	0.0000	0.0000	0.0000	0.0000;
	19972	0.705	0	0	0	1.05	2.3	1	2.3	0	0	0	0	0	0	0	0	0	0	0	0	0.0000	0.0000	0.0000	0.0000;
	19973	0.705	0	0	0	1.05	2.3	1	2.3	0	0	0	0	0	0	0	0	0	0	0	0	0.0000	0.0000	0.0000	0.0000;
	19974	4.932	-4	4	-4	1.05	16.1	1	16.1	0	0	0	0	0	0	0	0	0	0	0	0	0.0000	0.0000	0.0000	0.0000;
	20101	35	0	21	-14	1.075	41.2	0	35	-38	0	0	0	0	0	0	0	0	0	0	0	0.0000	0.0000	0.0000	0.0000;
	21071	0.153	0	0	0	1.05	0.85	1	0.5	0	0	0	0	0	0	0	0	0	0	0	0	0.0000	0.0000	0.0000	0.0000;
	21371	8.73	-5.111	9.5	-9.5	1.05	31.73	1	28.5	0	0	0	0	0	0	0	0	0	0	0	0	0.0000	0.0000	0.0000	0.0000;
	21372	5.36	-3.121	5.8	-5.8	1.05	23.38	1	17.5	0	0	0	0	0	0	0	0	0	0	0	0	0.0000	0.0000	0.0000	0.0000;
	21871	0.521	0	0	0	1.01	1.7	1	1.7	0	0	0	0	0	0	0	0	0	0	0	0	0.0000	0.0000	0.0000	0.0000;
	21872	0.766	-0.99	-0.99	-1.28	1.01	2.7	1	2.5	0	0	0	0	0	0	0	0	0	0	0	0	0.0000	0.0000	0.0000	0.0000;
	21873	1.274	0	0	0	1	1.6	0	1.274	0	0	0	0	0	0	0	0	0	0	0	0	0.0000	0.0000	0.0000	0.0000;
	21875	3	0	0	0	1	3.78	1	3	0	0	0	0	0	0	0	0	0	0	0	0	0.0000	0.0000	0.0000	0.0000;
	22272	5.207	-4.249	0	-5.59	1	16	1	17	0	0	0	0	0	0	0	0	0	0	0	0	0.0000	0.0000	0.0000	0.0000;
	22273	1.378	-1.103	0	-1.48	1	4	1	4.5	0	0	0	0	0	0	0	0	0	0	0	0	0.0000	0.0000	0.0000	0.0000;
	22274	1.819	-2.4	-2.4	-2.4	1	5.94	1	5.94	0	0	0	0	0	0	0	0	0	0	0	0	0.0000	0.0000	0.0000	0.0000;
	22275	1.302	0	0	0	1	4.25	1	4.25	0	0	0	0	0	0	0	0	0	0	0	0	0.0000	0.0000	0.0000	0.0000;
	22276	1.823	0	0	0	1	6.68	1	5.95	0	0	0	0	0	0	0	0	0	0	0	0	0.0000	0.0000	0.0000	0.0000;
	22277	0.934	-0.99	0	-0.99	1	3.34	1	3.05	0	0	0	0	0	0	0	0	0	0	0	0	0.0000	0.0000	0.0000	0.0000;
	22278	1.415	-1	-1	-1	1	4.62	1	4.62	0	0	0	0	0	0	0	0	0	0	0	0	0.0000	0.0000	0.0000	0.0000;
	22292	6	0	0	0	1	6	0	6	0	0	0	0	0	0	0	0	0	0	0	0	0.0000	0.0000	0.0000	0.0000;
	22371	18.225	0	0	0	1.05	59.5	1	59.5	0	0	0	0	0	0	0	0	0	0	0	0	0.0000	0.0000	0.0000	0.0000;
	22471	0.781	0	0	0	1.04	2.55	1	2.55	0	0	0	0	0	0	0	0	0	0	0	0	0.0000	0.0000	0.0000	0.0000;
	22472	1.302	0	0	0	1.04	4.25	1	4.25	0	0	0	0	0	0	0	0	0	0	0	0	0.0000	0.0000	0.0000	0.0000;
	22473	1.302	-1.5	-1.5	-1.5	1.01	4.25	1	4.25	0	0	0	0	0	0	0	0	0	0	0	0	0.0000	0.0000	0.0000	0.0000;
	22671	52.1	0	32.6	-22.7	1.05	62	0	52.1	1.2	0	0	0	0	0	0	0	0	0	0	0	0.0000	0.0000	0.0000	0.0000;
	22672	52.1	0	32.6	-22.7	1.05	62	0	52.1	1.2	0	0	0	0	0	0	0	0	0	0	0	0.0000	0.0000	0.0000	0.0000;
	22673	14.56	0	10.92	-3.64	1.05	18.2	0	14.56	0	0	0	0	0	0	0	0	0	0	0	0	0.0000	0.0000	0.0000	0.0000;
	22871	0.735	-0.84	-0.84	-1.09	1.01	2.4	1	2.4	0	0	0	0	0	0	0	0	0	0	0	0	0.0000	0.0000	0.0000	0.0000;
	22872	12.497	0	0	0	1.05	45.423	1	40.8	0	0	0	0	0	0	0	0	0	0	0	0	0.0000	0.0000	0.0000	0.0000;
	23671	7.351	0	0	-7.89	1.05	25	1	24	0	0	0	0	0	0	0	0	0	0	0	0	0.0000	0.0000	0.0000	0.0000;
	25604	1.6	0	0	0	1	1.7	0	1.6	0	0	0	0	0	0	0	0	0	0	0	0	0.0000	0.0000	0.0000	0.0000;
	26771	7.964	-10	10	-10	1.05	26	1	26	0	0	0	0	0	0	0	0	0	0	0	0	0.0000	0.0000	0.0000	0.0000;
	26772	0.6	0	0	0	1.075	6	1	6	6	0	0	0	0	0	0	0	0	0	0	0	0.0000	0.0000	0.0000	0.0000;
	26773	6.739	-10	10	-10	1.05	22	1	22	0	0	0	0	0	0	0	0	0	0	0	0	0.0000	0.0000	0.0000	0.0000;
	26774	0.6	0	0	0	1.075	6	1	6	6	0	0	0	0	0	0	0	0	0	0	0	0.0000	0.0000	0.0000	0.0000;
	27071	0.245	0	0	0	1	0.8	1	0.8	0	0	0	0	0	0	0	0	0	0	0	0	0.0000	0.0000	0.0000	0.0000;
	27204	4	-1	1	-1	1.04	5	1	4	0	0	0	0	0	0	0	0	0	0	0	0	0.0000	0.0000	0.0000	0.0000;
	27361	0	-5.285	12.3	-12.3	1.05	12.3	1	0	0	0	0	0	0	0	0	0	0	0	0	0	0.0000	0.0000	0.0000	0.0000;
	27371	3.921	0	0	0	1.05	14.45	1	12.8	0	0	0	0	0	0	0	0	0	0	0	0	0.0000	0.0000	0.0000	0.0000;
	27372	5.207	0	0	0	1.05	18.75	1	17	0	0	0	0	0	0	0	0	0	0	0	0	0.0000	0.0000	0.0000	0.0000;
	27374	1.838	-1.97	-1.97	-1.97	1.05	6.25	1	6	0	0	0	0	0	0	0	0	0	0	0	0	0.0000	0.0000	0.0000	0.0000;
	27474	330	112.911	285	-182	1.075	570.6	1	469.5	235	0	0	0	0	0	0	0	0	0	0	0	0.0000	0.0000	0.0000	0.0000;
	27771	12.628	-5.586	13	-13.61	1.05	41.4	1	41.225	0	0	0	0	0	0	0	0	0	0	0	0	0.0000	0.0000	0.0000	0.0000;
	27772	3.063	-2	-2	-2	1	11.912	1	10	0	0	0	0	0	0	0	0	0	0	0	0	0.0000	0.0000	0.0000	0.0000;
	27773	1.532	-1	-1	-1	1	4.6	1	5	0	0	0	0	0	0	0	0	0	0	0	0	0.0000	0.0000	0.0000	0.0000;
	27774	5.514	-3	-3	-3	1.05	18.4	1	18	0	0	0	0	0	0	0	0	0	0	0	0	0.0000	0.0000	0.0000	0.0000;
	27871	1.011	-0.7	-0.7	-0.7	1.04	3.3	1	3.3	0	0	0	0	0	0	0	0	0	0	0	0	0.0000	0.0000	0.0000	0.0000;
	28071	4.595	-6	-6	-6	1.05	15	1	15	0	0	0	0	0	0	0	0	0	0	0	0	0.0000	0.0000	0.0000	0.0000;
	28271	0.919	-1.2	-1.2	-1.2	1.04	3.34	1	3	0	0	0	0	0	0	0	0	0	0	0	0	0.0000	0.0000	0.0000	0.0000;
	28571	330	-56.612	282.1	-190	1.04	535.5	1	450.5	110.1	0	0	0	0	0	0	0	0	0	0	0	0.0000	0.0000	0.0000	0.0000;
	28871	1.838	-1.97	1.97	-1.97	1	6.68	1	6	0	0	0	0	0	0	0	0	0	0	0	0	0.0000	0.0000	0.0000	0.0000;
	28872	3.216	0	0	0	1	13.8	1	10.5	0	0	0	0	0	0	0	0	0	0	0	0	0.0000	0.0000	0.0000	0.0000;
	28873	5.054	-5.42	5.42	-5.42	1	18.4	1	16.5	0	0	0	0	0	0	0	0	0	0	0	0	0.0000	0.0000	0.0000	0.0000;
	28874	7.964	0	0	0	1	27.6	1	26	0	0	0	0	0	0	0	0	0	0	0	0	0.0000	0.0000	0.0000	0.0000;
	29671	110	8.446	107	-53	1.075	150	1	123	40	0	0	0	0	0	0	0	0	0	0	0	0.0000	0.0000	0.0000	0.0000;
	29672	220	16.235	181	-87	1.075	288	1	236.2	138	0	0	0	0	0	0	0	0	0	0	0	0.0000	0.0000	0.0000	0.0000;
	29673	300	40.855	255	-170	1.075	473	1	400	194	0	0	0	0	0	0	0	0	0	0	0	0.0000	0.0000	0.0000	0.0000;
	30671	15	13	13	-4	1.05	21.4	1	15	4	0	0	0	0	0	0	0	0	0	0	0	0.0000	0.0000	0.0000	0.0000;
	30671	4	3	3	-1	1.05	5.7	1	4	1	0	0	0	0	0	0	0	0	0	0	0	0.0000	0.0000	0.0000	0.0000;
	31071	0.781	0	0	0	1.01	2.55	1	2.55	0	0	0	0	0	0	0	0	0	0	0	0	0.0000	0.0000	0.0000	0.0000;
	31072	0.26	-0.28	-0.28	-0.36	1.01	0.85	1	0.85	0	0	0	0	0	0	0	0	0	0	0	0	0.0000	0.0000	0.0000	0.0000;
	31074	0.781	0	0	0	1.04	2.55	1	2.55	0	0	0	0	0	0	0	0	0	0	0	0	0.0000	0.0000	0.0000	0.0000;
	31271	300	295	295	-100	1.075	500	1	409.9	163	0	0	0	0	0	0	0	0	0	0	0	0.0000	0.0000	0.0000	0.0000;
	32171	9.113	-9.78	9.78	-9.78	1.05	36	1	29.75	0	0	0	0	0	0	0	0	0	0	0	0	0.0000	0.0000	0.0000	0.0000;
	32271	0.245	0	0	0	1.05	0.8	1	0.8	0	0	0	0	0	0	0	0	0	0	0	0	0.0000	0.0000	0.0000	0.0000;
	32404	4.26	0	1	-1	1.04	4.8	0	4.26	0	0	0	0	0	0	0	0	0	0	0	0	0.0000	0.0000	0.0000	0.0000;
	32570	13.585	-4.6	4.6	-4.6	1	46.875	1	44.35	0	0	0	0	0	0	0	0	0	0	0	0	0.0000	0.0000	0.0000	0.0000;
	32576	3.431	-3.656	0	-5.03	1	11.2	1	11.2	0	0	0	0	0	0	0	0	0	0	0	0	0.0000	0.0000	0.0000	0.0000;
	32577	1.103	-1.152	0	-5.03	1	3.6	1	3.6	0	0	0	0	0	0	0	0	0	0	0	0	0.0000	0.0000	0.0000	0.0000;
	32578	1.532	0	0	0	1	1.25	1	1.25	0	0	0	0	0	0	0	0	0	0	0	0	0.0000	0.0000	0.0000	0.0000;
	32604	7.5	0	1	-1	1.05	8.5	0	7.5	2	0	0	0	0	0	0	0	0	0	0	0	0.0000	0.0000	0.0000	0.0000;
	32604	0.18	0	0	0	1.05	0.2	0	0.18	0	0	0	0	0	0	0	0	0	0	0	0	0.0000	0.0000	0.0000	0.0000;
	33071	1.378	-1.48	0	-1.48	1	4	1	4.5	0	0	0	0	0	0	0	0	0	0	0	0	0.0000	0.0000	0.0000	0.0000;
	33072	2.864	0	0	0	1	9.35	1	9.35	0	0	0	0	0	0	0	0	0	0	0	0	0.0000	0.0000	0.0000	0.0000;
	33971	26.649	-15.707	28.6	-28.6	1.05	104.23	1	87	0	0	0	0	0	0	0	0	0	0	0	0	0.0000	0.0000	0.0000	0.0000;
	35071	1.409	-1.64	-1.64	-2.13	1.01	4.6	1	4.6	0	0	0	0	0	0	0	0	0	0	0	0	0.0000	0.0000	0.0000	0.0000;
	35074	103	-11.966	60	-39	1.05	121.1	1	103.3	70	0	0	0	0	0	0	0	0	0	0	0	0.0000	0.0000	0.0000	0.0000;
	35871	0.781	0	0	0	1.04	2.55	1	2.55	0	0	0	0	0	0	0	0	0	0	0	0	0.0000	0.0000	0.0000	0.0000;
	35872	0.75	0	0	0	1.04	2.55	1	2.45	0	0	0	0	0	0	0	0	0	0	0	0	0.0000	0.0000	0.0000	0.0000;
	35873	0.98	0	0	0	1.04	3.2	1	3.2	0	0	0	0	0	0	0	0	0	0	0	0	0.0000	0.0000	0.0000	0.0000;
	35875	4.595	-6	-6	-6	1.04	17.7	1	15	0	0	0	0	0	0	0	0	0	0	0	0	0.0000	0.0000	0.0000	0.0000;
	35876	3.639	-4.8	-4.8	-4.8	1.04	11.88	1	11.88	0	0	0	0	0	0	0	0	0	0	0	0	0.0000	0.0000	0.0000	0.0000;
	35877	1.528	0	0	0	1.04	5.4	1	4.99	0	0	0	0	0	0	0	0	0	0	0	0	0.0000	0.0000	0.0000	0.0000;
	36271	11.027	-10.883	12	-12	1.05	36	1	36	0	0	0	0	0	0	0	0	0	0	0	0	0.0000	0.0000	0.0000	0.0000;
	36272	1.9	-6.802	7.5	-75	1.05	20	1	19	0	0	0	0	0	0	0	0	0	0	0	0	0.0000	0.0000	0.0000	0.0000;
	36471	4.426	0	0	0	1.05	15	1	14.45	0	0	0	0	0	0	0	0	0	0	0	0	0.0000	0.0000	0.0000	0.0000;
	36472	1.225	-1.31	-1.31	-1.7	1.04	4.6	1	4	0	0	0	0	0	0	0	0	0	0	0	0	0.0000	0.0000	0.0000	0.0000;
	36473	1.409	0	0	0	1	4.6	1	4.6	0	0	0	0	0	0	0	0	0	0	0	0	0.0000	0.0000	0.0000	0.0000;
	36474	1.103	-1.18	-1.18	-1.53	1.04	4	1	3.6	0	0	0	0	0	0	0	0	0	0	0	0	0.0000	0.0000	0.0000	0.0000;
	36475	1.225	-1.2	-1.2	-1.2	1.04	4.6	1	4	0	0	0	0	0	0	0	0	0	0	0	0	0.0000	0.0000	0.0000	0.0000;
	36476	4.533	2.966	4	-4	1.04	17.868	1	14.8	0	0	0	0	0	0	0	0	0	0	0	0	0.0000	0.0000	0.0000	0.0000;
	38071	0.49	-0.56	-0.56	-0.56	1.01	1.6	1	1.6	0	0	0	0	0	0	0	0	0	0	0	0	0.0000	0.0000	0.0000	0.0000;
	38244	1	0	0	0	1	6.5	0	1	0	0	0	0	0	0	0	0	0	0	0	0	0.0000	0.0000	0.0000	0.0000;
	38271	3.216	0	0	0	1.04	11.69	1	10.5	0	0	0	0	0	0	0	0	0	0	0	0	0.0000	0.0000	0.0000	0.0000;
	38272	1.378	0	0	0	1.04	5.01	1	4.5	0	0	0	0	0	0	0	0	0	0	0	0	0.0000	0.0000	0.0000	0.0000;
...
];

%% branch data
%	fbus	tbus	r	x	b	rateA	rateB	rateC	ratio	angle	status	angmin	angmax	Pf	Qf	Pt	Qt	mu_Sf	mu_St	mu_angmin	mu_angmax
mpc.branch = [
	11	42404	0.0036	0.00391	0.00207	100	100	110	0	0	1	-360	360	0.0000	0.0000	0.0000	0.0000	0.0000	0.0000	0.0000	0.0000;
	12	25404	0.00534	0.00795	0.00407	9999	9999	10998.9	0	0	1	-360	360	0.0000	0.0000	0.0000	0.0000	0.0000	0.0000	0.0000	0.0000;
	12	25404	0.00594	0.00866	0.00435	9999	9999	10998.9	0	0	1	-360	360	0.0000	0.0000	0.0000	0.0000	0.0000	0.0000	0.0000	0.0000;
	12	46504	0.02132	0.02114	0.00329	9999	9999	10998.9	0	0	1	-360	360	0.0000	0.0000	0.0000	0.0000	0.0000	0.0000	0.0000	0.0000;
	12	46504	0.01937	0.01703	0.00256	9999	9999	10998.9	0	0	1	-360	360	0.0000	0.0000	0.0000	0.0000	0.0000	0.0000	0.0000	0.0000;
	1021	2121	0.0286	0.067	0.0059	128	128	140.8	0	0	1	-360	360	0.0000	0.0000	0.0000	0.0000	0.0000	0.0000	0.0000	0.0000;
	1021	2361	0.0513	0.1172	0.0106	128	128	140.8	0	0	1	-360	360	0.0000	0.0000	0.0000	0.0000	0.0000	0.0000	0.0000	0.0000;
	1021	3541	0.0071	0.037	0.0116	219	219	240.9	0	0	1	-360	360	0.0000	0.0000	0.0000	0.0000	0.0000	0.0000	0.0000	0.0000;
	1021	10210	0	0.0001	0	999	999	1098.9	0	0	1	-360	360	0.0000	0.0000	0.0000	0.0000	0.0000	0.0000	0.0000	0.0000;
	1021	10261	0	0.0001	0	128	128	140.8	0	0	1	-360	360	0.0000	0.0000	0.0000	0.0000	0.0000	0.0000	0.0000	0.0000;
	1041	5481	0.0049	0.0107	0.001	128	128	140.8	0	0	1	-360	360	0.0000	0.0000	0.0000	0.0000	0.0000	0.0000	0.0000	0.0000;
	1042	1052	0	0.0001	0	9999	9999	10998.9	0	0	1	-360	360	0.0000	0.0000	0.0000	0.0000	0.0000	0.0000	0.0000	0.0000;
	1042	1062	0	0.0001	0	593	593	652.3	0	0	1	-360	360	0.0000	0.0000	0.0000	0.0000	0.0000	0.0000	0.0000	0.0000;
	1042	1072	0.0001	0.0006	0.0384	593	593	652.3	0	0	1	-360	360	0.0000	0.0000	0.0000	0.0000	0.0000	0.0000	0.0000	0.0000;
	1042	3202	0.003	0.0222	0.0335	534	534	587.4	0	0	1	-360	360	0.0000	0.0000	0.0000	0.0000	0.0000	0.0000	0.0000	0.0000;
	1042	4722	0.0012	0.0078	0.2591	534	534	587.4	0	0	1	-360	360	0.0000	0.0000	0.0000	0.0000	0.0000	0.0000	0.0000	0.0000;
	1042	35771	0.0001	0.0004	0.0265	593	593	652.3	0	0	1	-360	360	0.0000	0.0000	0.0000	0.0000	0.0000	0.0000	0.0000	0.0000;
	1052	1062	0	0.0001	0	999	999	1098.9	0	0	1	-360	360	0.0000	0.0000	0.0000	0.0000	0.0000	0.0000	0.0000	0.0000;
	1052	2852	0.0002	0.0015	0.1035	593	593	652.3	0	0	1	-360	360	0.0000	0.0000	0.0000	0.0000	0.0000	0.0000	0.0000	0.0000;
	1052	3202	0.003	0.0222	0.0335	534	534	587.4	0	0	1	-360	360	0.0000	0.0000	0.0000	0.0000	0.0000	0.0000	0.0000	0.0000;
	1061	10619	0.0004	0.0008	0.0001	128	128	140.8	0	0	1	-360	360	0.0000	0.0000	0.0000	0.0000	0.0000	0.0000	0.0000	0.0000;
	1062	1072	0	0.0001	0	999	999	1098.9	0	0	1	-360	360	0.0000	0.0000	0.0000	0.0000	0.0000	0.0000	0.0000	0.0000;
	1071	2361	0.0594	0.1314	0.0123	128	128	140.8	0	0	1	-360	360	0.0000	0.0000	0.0000	0.0000	0.0000	0.0000	0.0000	0.0000;
	1071	3211	0.0094	0.0208	0.002	128	128	140.8	0	0	1	-360	360	0.0000	0.0000	0.0000	0.0000	0.0000	0.0000	0.0000	0.0000;
	1071	4941	0.0718	0.1589	0.0148	128	128	140.8	0	0	1	-360	360	0.0000	0.0000	0.0000	0.0000	0.0000	0.0000	0.0000	0.0000;
	1081	32810	0.0039	0.0123	0.0035	68	112	123.2	0	0	1	-360	360	0.0000	0.0000	0.0000	0.0000	0.0000	0.0000	0.0000	0.0000;
	1091	2861	0.0018	0.0038	0.0251	140	140	154	0	0	1	-360	360	0.0000	0.0000	0.0000	0.0000	0.0000	0.0000	0.0000	0.0000;
	1091	2861	0.0018	0.0038	0.0251	140	140	154	0	0	1	-360	360	0.0000	0.0000	0.0000	0.0000	0.0000	0.0000	0.0000	0.0000;
	1101	2161	0.0031	0.0069	0.0006	45	128	140.8	0	0	1	-360	360	0.0000	0.0000	0.0000	0.0000	0.0000	0.0000	0.0000	0.0000;
	1121	1301	0.0102	0.0787	0.0071	166	166	182.6	0	0	1	-360	360	0.0000	0.0000	0.0000	0.0000	0.0000	0.0000	0.0000	0.0000;
	1121	1541	0.0207	0.0952	0.0102	137	219	240.9	0	0	1	-360	360	0.0000	0.0000	0.0000	0.0000	0.0000	0.0000	0.0000	0.0000;
	1121	4901	0.0035	0.0077	0.0008	57	57	62.7	0	0	1	-360	360	0.0000	0.0000	0.0000	0.0000	0.0000	0.0000	0.0000	0.0000;
	1122	1742	0.0062	0.0462	0.0697	534	534	587.4	0	0	1	-360	360	0.0000	0.0000	0.0000	0.0000	0.0000	0.0000	0.0000	0.0000;
	1122	3642	0.0046	0.0338	0.051	435	534	587.4	0	0	1	-360	360	0.0000	0.0000	0.0000	0.0000	0.0000	0.0000	0.0000	0.0000;
	1131	1151	0	0.0001	0	219	219	240.9	0	0	1	-360	360	0.0000	0.0000	0.0000	0.0000	0.0000	0.0000	0.0000	0.0000;
	1131	2131	0.005	0.0105	0.0703	140	140	154	0	0	1	-360	360	0.0000	0.0000	0.0000	0.0000	0.0000	0.0000	0.0000	0.0000;
	1131	31911	0.0057	0.0293	0.0032	219	219	240.9	0	0	1	-360	360	0.0000	0.0000	0.0000	0.0000	0.0000	0.0000	0.0000	0.0000;
	1141	1911	0.0016	0.0034	0.0226	140	140	154	0	0	1	-360	360	0.0000	0.0000	0.0000	0.0000	0.0000	0.0000	0.0000	0.0000;
	1141	3501	0.054	0.123	0.0116	128	128	140.8	0	0	1	-360	360	0.0000	0.0000	0.0000	0.0000	0.0000	0.0000	0.0000	0.0000;
	1141	4941	0.0135	0.0696	0.0113	137	219	240.9	0	0	1	-360	360	0.0000	0.0000	0.0000	0.0000	0.0000	0.0000	0.0000	0.0000;
	1141	11461	0	0.0001	0	128	128	140.8	0	0	1	-360	360	0.0000	0.0000	0.0000	0.0000	0.0000	0.0000	0.0000	0.0000;
	1161	1781	0.001	0.002	0.0011	96	96	105.6	0	0	1	-360	360	0.0000	0.0000	0.0000	0.0000	0.0000	0.0000	0.0000	0.0000;
	1161	3461	0.0207	0.1067	0.0116	219	219	240.9	0	0	1	-360	360	0.0000	0.0000	0.0000	0.0000	0.0000	0.0000	0.0000	0.0000;
	1161	3901	0.0173	0.0894	0.0097	219	219	240.9	0	0	1	-360	360	0.0000	0.0000	0.0000	0.0000	0.0000	0.0000	0.0000	0.0000;
	1161	5051	0.0006	0.0012	0.0061	131	131	144.1	0	0	1	-360	360	0.0000	0.0000	0.0000	0.0000	0.0000	0.0000	0.0000	0.0000;
	1161	5071	0.0006	0.0012	0.0061	131	131	144.1	0	0	1	-360	360	0.0000	0.0000	0.0000	0.0000	0.0000	0.0000	0.0000	0.0000;
	1161	17810	0.001	0.0021	0.0012	96	96	105.6	0	0	1	-360	360	0.0000	0.0000	0.0000	0.0000	0.0000	0.0000	0.0000	0.0000;
	1181	1861	0.0644	0.1424	0.0133	128	128	140.8	0	0	1	-360	360	0.0000	0.0000	0.0000	0.0000	0.0000	0.0000	0.0000	0.0000;
	1181	2821	0.0193	0.0994	0.0108	219	219	240.9	0	0	1	-360	360	0.0000	0.0000	0.0000	0.0000	0.0000	0.0000	0.0000	0.0000;
	1181	4221	0.0381	0.1969	0.0214	128	128	140.8	0	0	1	-360	360	0.0000	0.0000	0.0000	0.0000	0.0000	0.0000	0.0000	0.0000;
	1181	4961	0.0292	0.0645	0.006	110	110	121	0	0	1	-360	360	0.0000	0.0000	0.0000	0.0000	0.0000	0.0000	0.0000	0.0000;
	1181	4961	0.0148	0.0763	0.0097	219	219	240.9	0	0	1	-360	360	0.0000	0.0000	0.0000	0.0000	0.0000	0.0000	0.0000	0.0000;
	1201	2561	0.0047	0.0101	0.0548	131	131	144.1	0	0	1	-360	360	0.0000	0.0000	0.0000	0.0000	0.0000	0.0000	0.0000	0.0000;
	1201	3781	0.0026	0.0055	0.0298	131	131	144.1	0	0	1	-360	360	0.0000	0.0000	0.0000	0.0000	0.0000	0.0000	0.0000	0.0000;
	1211	2771	0.0044	0.0228	0.0025	219	219	240.9	0	0	1	-360	360	0.0000	0.0000	0.0000	0.0000	0.0000	0.0000	0.0000	0.0000;
	1211	12111	0	0.0001	0	219	219	240.9	0	0	1	-360	360	0.0000	0.0000	0.0000	0.0000	0.0000	0.0000	0.0000	0.0000;
	1212	1602	0.0025	0.0158	0.025	804	804	884.4	0	0	1	-360	360	0.0000	0.0000	0.0000	0.0000	0.0000	0.0000	0.0000	0.0000;
	1212	3332	0.002	0.0124	0.0197	804	804	884.4	0	0	1	-360	360	0.0000	0.0000	0.0000	0.0000	0.0000	0.0000	0.0000	0.0000;
	1221	1901	0.0389	0.086	0.008	128	128	140.8	0	0	1	-360	360	0.0000	0.0000	0.0000	0.0000	0.0000	0.0000	0.0000	0.0000;
	1221	3551	0.0318	0.075	0.0072	128	128	140.8	0	0	1	-360	360	0.0000	0.0000	0.0000	0.0000	0.0000	0.0000	0.0000	0.0000;
	1231	1841	0.0111	0.03	0.1366	68	116	127.6	0	0	1	-360	360	0.0000	0.0000	0.0000	0.0000	0.0000	0.0000	0.0000	0.0000;
	1251	2361	0.0151	0.078	0.0085	219	219	240.9	0	0	1	-360	360	0.0000	0.0000	0.0000	0.0000	0.0000	0.0000	0.0000	0.0000;
	1251	52219	0.0124	0.0637	0.0069	219	219	240.9	0	0	1	-360	360	0.0000	0.0000	0.0000	0.0000	0.0000	0.0000	0.0000	0.0000;
	1271	2041	0.0106	0.0546	0.006	219	219	240.9	0	0	1	-360	360	0.0000	0.0000	0.0000	0.0000	0.0000	0.0000	0.0000	0.0000;
	1271	2181	0.0126	0.065	0.0071	219	219	240.9	0	0	1	-360	360	0.0000	0.0000	0.0000	0.0000	0.0000	0.0000	0.0000	0.0000;
	1281	2221	0.0426	0.0943	0.0098	68	128	140.8	0	0	1	-360	360	0.0000	0.0000	0.0000	0.0000	0.0000	0.0000	0.0000	0.0000;
	1301	17411	0.0148	0.1159	0.0104	166	166	182.6	0	0	1	-360	360	0.0000	0.0000	0.0000	0.0000	0.0000	0.0000	0.0000	0.0000;
	1311	3331	0.0052	0.0267	0.0029	219	219	240.9	0	0	1	-360	360	0.0000	0.0000	0.0000	0.0000	0.0000	0.0000	0.0000	0.0000;
	1321	13219	0.0006	0.0017	0.0002	166	166	182.6	0	0	1	-360	360	0.0000	0.0000	0.0000	0.0000	0.0000	0.0000	0.0000	0.0000;
	1341	1701	0.0533	0.1178	0.011	128	128	140.8	0	0	1	-360	360	0.0000	0.0000	0.0000	0.0000	0.0000	0.0000	0.0000	0.0000;
	1341	5191	0.023	0.0734	0.0075	166	166	182.6	0	0	1	-360	360	0.0000	0.0000	0.0000	0.0000	0.0000	0.0000	0.0000	0.0000;
	1351	4081	0.0121	0.0367	0.031	124	124	136.4	0	0	1	-360	360	0.0000	0.0000	0.0000	0.0000	0.0000	0.0000	0.0000	0.0000;
	1351	4201	0.0073	0.0214	0.0295	124	124	136.4	0	0	1	-360	360	0.0000	0.0000	0.0000	0.0000	0.0000	0.0000	0.0000	0.0000;
	1361	2001	0.0312	0.0751	0.0073	221	221	243.1	0	0	1	-360	360	0.0000	0.0000	0.0000	0.0000	0.0000	0.0000	0.0000	0.0000;
	1361	2161	0.0071	0.0368	0.004	219	219	240.9	0	0	1	-360	360	0.0000	0.0000	0.0000	0.0000	0.0000	0.0000	0.0000	0.0000;
	1381	1391	0	0.0001	0	166	166	182.6	0	0	1	-360	360	0.0000	0.0000	0.0000	0.0000	0.0000	0.0000	0.0000	0.0000;
	1381	4721	0.0027	0.0059	0.0006	99	99	108.9	0	0	1	-360	360	0.0000	0.0000	0.0000	0.0000	0.0000	0.0000	0.0000	0.0000;
	1391	4731	0.0021	0.0061	0.0007	128	128	140.8	0	0	1	-360	360	0.0000	0.0000	0.0000	0.0000	0.0000	0.0000	0.0000	0.0000;
	1400	14015	0.0021	0.0108	0.0012	219	219	240.9	0	0	1	-360	360	0.0000	0.0000	0.0000	0.0000	0.0000	0.0000	0.0000	0.0000;
	1400	14016	0.0021	0.0108	0.0012	219	219	240.9	0	0	1	-360	360	0.0000	0.0000	0.0000	0.0000	0.0000	0.0000	0.0000	0.0000;
	1400	14017	0.0021	0.0108	0.0012	219	219	240.9	0	0	1	-360	360	0.0000	0.0000	0.0000	0.0000	0.0000	0.0000	0.0000	0.0000;
	1400	14018	0.0242	0.1251	0.0136	219	219	240.9	0	0	1	-360	360	0.0000	0.0000	0.0000	0.0000	0.0000	0.0000	0.0000	0.0000;
	1401	1661	0.0235	0.1215	0.0132	219	219	240.9	0	0	1	-360	360	0.0000	0.0000	0.0000	0.0000	0.0000	0.0000	0.0000	0.0000;
	1401	4041	0.042	0.0929	0.0087	114	114	125.4	0	0	1	-360	360	0.0000	0.0000	0.0000	0.0000	0.0000	0.0000	0.0000	0.0000;
	1401	14061	0	0.001	0	128	128	140.8	0	0	1	-360	360	0.0000	0.0000	0.0000	0.0000	0.0000	0.0000	0.0000	0.0000;
	1404	2524	0.0024	0.0274	0.6208	1944	1944	2138.4	0	0	1	-360	360	0.0000	0.0000	0.0000	0.0000	0.0000	0.0000	0.0000	0.0000;
	1421	4511	0.002	0.0041	0.092	119	119	130.9	0	0	1	-360	360	0.0000	0.0000	0.0000	0.0000	0.0000	0.0000	0.0000	0.0000;
	1421	4651	0.003	0.006	0.1362	119	119	130.9	0	0	1	-360	360	0.0000	0.0000	0.0000	0.0000	0.0000	0.0000	0.0000	0.0000;
	1431	3261	0.0139	0.0715	0.0078	219	219	240.9	0	0	1	-360	360	0.0000	0.0000	0.0000	0.0000	0.0000	0.0000	0.0000	0.0000;
	1431	3551	0.0176	0.091	0.0099	219	219	240.9	0	0	1	-360	360	0.0000	0.0000	0.0000	0.0000	0.0000	0.0000	0.0000	0.0000;
	1441	1501	0.004	0.009	0.0009	68	128	140.8	0	0	1	-360	360	0.0000	0.0000	0.0000	0.0000	0.0000	0.0000	0.0000	0.0000;
	1441	2221	0.0402	0.089	0.0083	128	128	140.8	0	0	1	-360	360	0.0000	0.0000	0.0000	0.0000	0.0000	0.0000	0.0000	0.0000;
	1441	4731	0.0413	0.0914	0.0115	128	128	140.8	0	0	1	-360	360	0.0000	0.0000	0.0000	0.0000	0.0000	0.0000	0.0000	0.0000;
	1441	14461	0	0.0001	0	128	128	140.8	0	0	1	-360	360	0.0000	0.0000	0.0000	0.0000	0.0000	0.0000	0.0000	0.0000;
	1441	15010	0.0039	0.0086	0.0008	68	128	140.8	0	0	1	-360	360	0.0000	0.0000	0.0000	0.0000	0.0000	0.0000	0.0000	0.0000;
	1451	2581	0.0049	0.0156	0.0084	154	154	169.4	0	0	1	-360	360	0.0000	0.0000	0.0000	0.0000	0.0000	0.0000	0.0000	0.0000;
	1451	3761	0.0034	0.0109	0.0039	128	128	140.8	0	0	1	-360	360	0.0000	0.0000	0.0000	0.0000	0.0000	0.0000	0.0000	0.0000;
	1461	1721	0.0664	0.1525	0.0144	128	128	140.8	0	0	1	-360	360	0.0000	0.0000	0.0000	0.0000	0.0000	0.0000	0.0000	0.0000;
	1461	3201	0.0204	0.0656	0.0067	166	166	182.6	0	0	1	-360	360	0.0000	0.0000	0.0000	0.0000	0.0000	0.0000	0.0000	0.0000;
	1471	2761	0.0025	0.0053	0.0309	140	140	154	0	0	1	-360	360	0.0000	0.0000	0.0000	0.0000	0.0000	0.0000	0.0000	0.0000;
	1471	3421	0.0023	0.005	0.0291	140	140	154	0	0	1	-360	360	0.0000	0.0000	0.0000	0.0000	0.0000	0.0000	0.0000	0.0000;
	1472	2562	0.0006	0.0067	0.4653	593	593	652.3	0	0	1	-360	360	0.0000	0.0000	0.0000	0.0000	0.0000	0.0000	0.0000	0.0000;
	1481	2001	0.0073	0.0376	0.0041	219	219	240.9	0	0	1	-360	360	0.0000	0.0000	0.0000	0.0000	0.0000	0.0000	0.0000	0.0000;
	1481	3401	0.0017	0.0088	0.001	219	219	240.9	0	0	1	-360	360	0.0000	0.0000	0.0000	0.0000	0.0000	0.0000	0.0000	0.0000;
	1492	3522	0.0001	0.0006	0.0411	593	593	652.3	0	0	1	-360	360	0.0000	0.0000	0.0000	0.0000	0.0000	0.0000	0.0000	0.0000;
	1511	52610	0.0083	0.0426	0.0047	219	219	240.9	0	0	1	-360	360	0.0000	0.0000	0.0000	0.0000	0.0000	0.0000	0.0000	0.0000;
	1541	1841	0.0179	0.0811	0.0087	137	219	240.9	0	0	1	-360	360	0.0000	0.0000	0.0000	0.0000	0.0000	0.0000	0.0000	0.0000;
	1551	16011	0.008	0.0395	0.0394	219	219	240.9	0	0	1	-360	360	0.0000	0.0000	0.0000	0.0000	0.0000	0.0000	0.0000	0.0000;
	1571	5191	0.0544	0.1204	0.0112	128	128	140.8	0	0	1	-360	360	0.0000	0.0000	0.0000	0.0000	0.0000	0.0000	0.0000	0.0000;
	1581	4491	0.0024	0.0072	0.0053	129	129	141.9	0	0	1	-360	360	0.0000	0.0000	0.0000	0.0000	0.0000	0.0000	0.0000	0.0000;
	1581	5521	0.0025	0.0053	0.0286	131	131	144.1	0	0	1	-360	360	0.0000	0.0000	0.0000	0.0000	0.0000	0.0000	0.0000	0.0000;
	1601	1611	0.0188	0.0968	0.0105	219	219	240.9	0	0	1	-360	360	0.0000	0.0000	0.0000	0.0000	0.0000	0.0000	0.0000	0.0000;
	1601	2221	0.022	0.1137	0.0124	219	219	240.9	0	0	1	-360	360	0.0000	0.0000	0.0000	0.0000	0.0000	0.0000	0.0000	0.0000;
	1601	3881	0.0036	0.0184	0.002	219	219	240.9	0	0	1	-360	360	0.0000	0.0000	0.0000	0.0000	0.0000	0.0000	0.0000	0.0000;
	1601	16011	0	0.0001	0	219	219	240.9	0	0	1	-360	360	0.0000	0.0000	0.0000	0.0000	0.0000	0.0000	0.0000	0.0000;
	1602	3202	0.0062	0.0385	0.0612	548	804	884.4	0	0	1	-360	360	0.0000	0.0000	0.0000	0.0000	0.0000	0.0000	0.0000	0.0000;
	1611	3301	0.0128	0.066	0.0072	219	219	240.9	0	0	1	-360	360	0.0000	0.0000	0.0000	0.0000	0.0000	0.0000	0.0000	0.0000;
	1611	16110	0	0.001	0	999	999	1098.9	0	0	1	-360	360	0.0000	0.0000	0.0000	0.0000	0.0000	0.0000	0.0000	0.0000;
	1621	3061	0.0018	0.0089	0.001	219	219	240.9	0	0	1	-360	360	0.0000	0.0000	0.0000	0.0000	0.0000	0.0000	0.0000	0.0000;
	1621	3221	0.0094	0.0468	0.0054	219	219	240.9	0	0	1	-360	360	0.0000	0.0000	0.0000	0.0000	0.0000	0.0000	0.0000	0.0000;
	1631	2671	0.0046	0.0238	0.0026	91	219	240.9	0	0	1	-360	360	0.0000	0.0000	0.0000	0.0000	0.0000	0.0000	0.0000	0.0000;
	1631	5041	0.0197	0.0435	0.0041	128	128	140.8	0	0	1	-360	360	0.0000	0.0000	0.0000	0.0000	0.0000	0.0000	0.0000	0.0000;
	1631	10619	0.0143	0.0457	0.0047	166	166	182.6	0	0	1	-360	360	0.0000	0.0000	0.0000	0.0000	0.0000	0.0000	0.0000	0.0000;
	1641	1821	0.0144	0.0741	0.0081	196	196	215.6	0	0	1	-360	360	0.0000	0.0000	0.0000	0.0000	0.0000	0.0000	0.0000	0.0000;
	1641	2281	0.0809	0.1788	0.0167	128	128	140.8	0	0	1	-360	360	0.0000	0.0000	0.0000	0.0000	0.0000	0.0000	0.0000	0.0000;
	1641	2361	0.0336	0.1737	0.0189	120	120	132	0	0	1	-360	360	0.0000	0.0000	0.0000	0.0000	0.0000	0.0000	0.0000	0.0000;
	1641	2781	0.0214	0.0474	0.0044	128	128	140.8	0	0	1	-360	360	0.0000	0.0000	0.0000	0.0000	0.0000	0.0000	0.0000	0.0000;
	1641	2781	0.0176	0.0388	0.0036	128	128	140.8	0	0	1	-360	360	0.0000	0.0000	0.0000	0.0000	0.0000	0.0000	0.0000	0.0000;
	1641	2781	0.0176	0.0388	0.0036	128	128	140.8	0	0	1	-360	360	0.0000	0.0000	0.0000	0.0000	0.0000	0.0000	0.0000	0.0000;
	1641	4951	0.0331	0.0727	0.0672	105	105	115.5	0	0	1	-360	360	0.0000	0.0000	0.0000	0.0000	0.0000	0.0000	0.0000	0.0000;
	1641	16411	0	0.0001	0	128	128	140.8	0	0	1	-360	360	0.0000	0.0000	0.0000	0.0000	0.0000	0.0000	0.0000	0.0000;
	1641	16461	0	0.0001	0	128	128	140.8	0	0	1	-360	360	0.0000	0.0000	0.0000	0.0000	0.0000	0.0000	0.0000	0.0000;
	1641	16462	0	0.0001	0	999	999	1098.9	0	0	1	-360	360	0.0000	0.0000	0.0000	0.0000	0.0000	0.0000	0.0000	0.0000;
	1641	50019	0.0698	0.1544	0.0144	128	128	140.8	0	0	1	-360	360	0.0000	0.0000	0.0000	0.0000	0.0000	0.0000	0.0000	0.0000;
	1642	2522	0.0103	0.0763	0.1152	405	405	445.5	0	0	1	-360	360	0.0000	0.0000	0.0000	0.0000	0.0000	0.0000	0.0000	0.0000;
	1642	4522	0.0103	0.0767	0.1158	534	534	587.4	0	0	1	-360	360	0.0000	0.0000	0.0000	0.0000	0.0000	0.0000	0.0000	0.0000;
	1642	5172	0.0046	0.0289	0.0459	730	804	884.4	0	0	1	-360	360	0.0000	0.0000	0.0000	0.0000	0.0000	0.0000	0.0000	0.0000;
	1651	5261	0.014	0.031	0.0029	128	128	140.8	0	0	1	-360	360	0.0000	0.0000	0.0000	0.0000	0.0000	0.0000	0.0000	0.0000;
	1651	5281	0.0199	0.0445	0.0251	128	128	140.8	0	0	1	-360	360	0.0000	0.0000	0.0000	0.0000	0.0000	0.0000	0.0000	0.0000;
	1661	1821	0.0893	0.1978	0.0195	128	128	140.8	0	0	1	-360	360	0.0000	0.0000	0.0000	0.0000	0.0000	0.0000	0.0000	0.0000;
	1661	1951	0.0375	0.0825	0.0518	120	124	136.4	0	0	1	-360	360	0.0000	0.0000	0.0000	0.0000	0.0000	0.0000	0.0000	0.0000;
	1661	2281	0.0432	0.0955	0.0089	93	128	140.8	0	0	1	-360	360	0.0000	0.0000	0.0000	0.0000	0.0000	0.0000	0.0000	0.0000;
	1661	16661	0	0.0001	0	128	128	140.8	0	0	1	-360	360	0.0000	0.0000	0.0000	0.0000	0.0000	0.0000	0.0000	0.0000;
	1661	16662	0	0.01	0	9999	9999	10998.9	0	0	1	-360	360	0.0000	0.0000	0.0000	0.0000	0.0000	0.0000	0.0000	0.0000;
	1681	2011	0.00032	0.00016	0	190	190	209	0	0	1	-360	360	0.0000	0.0000	0.0000	0.0000	0.0000	0.0000	0.0000	0.0000;
	1681	3881	0.0016	0.0079	0.0009	137	219	240.9	0	0	1	-360	360	0.0000	0.0000	0.0000	0.0000	0.0000	0.0000	0.0000	0.0000;
	1681	32210	0.0202	0.1043	0.0113	219	219	240.9	0	0	1	-360	360	0.0000	0.0000	0.0000	0.0000	0.0000	0.0000	0.0000	0.0000;
	1691	5131	0.0029	0.0056	0.0725	100	100	110	0	0	1	-360	360	0.0000	0.0000	0.0000	0.0000	0.0000	0.0000	0.0000	0.0000;
	1691	51319	0.0018	0.0037	0.0247	100	100	110	0	0	1	-360	360	0.0000	0.0000	0.0000	0.0000	0.0000	0.0000	0.0000	0.0000;
	1701	1761	0.0058	0.0184	0.0019	68	166	182.6	0	0	1	-360	360	0.0000	0.0000	0.0000	0.0000	0.0000	0.0000	0.0000	0.0000;
	1701	1981	0.0385	0.1992	0.0216	219	219	240.9	0	0	1	-360	360	0.0000	0.0000	0.0000	0.0000	0.0000	0.0000	0.0000	0.0000;
	1701	5041	0.0649	0.1787	0.021	221	221	243.1	0	0	1	-360	360	0.0000	0.0000	0.0000	0.0000	0.0000	0.0000	0.0000	0.0000;
	1701	17010	0	0.0001	0	999	999	1098.9	0	0	1	-360	360	0.0000	0.0000	0.0000	0.0000	0.0000	0.0000	0.0000	0.0000;
	1701	17061	0	0.001	0	128	128	140.8	0	0	1	-360	360	0.0000	0.0000	0.0000	0.0000	0.0000	0.0000	0.0000	0.0000;
	1701	28712	0.0285	0.073	0.0067	222	222	244.2	0	0	1	-360	360	0.0000	0.0000	0.0000	0.0000	0.0000	0.0000	0.0000	0.0000;
	1711	3421	0.001	0.0021	0.0136	140	140	154	0	0	1	-360	360	0.0000	0.0000	0.0000	0.0000	0.0000	0.0000	0.0000	0.0000;
	1721	2161	0.0099	0.0511	0.0056	219	219	240.9	0	0	1	-360	360	0.0000	0.0000	0.0000	0.0000	0.0000	0.0000	0.0000	0.0000;
	1721	2391	0.0128	0.0659	0.0327	219	219	240.9	0	0	1	-360	360	0.0000	0.0000	0.0000	0.0000	0.0000	0.0000	0.0000	0.0000;
	1721	4911	0.00151	0.00547	0.03492	118	118	129.8	0	0	1	-360	360	0.0000	0.0000	0.0000	0.0000	0.0000	0.0000	0.0000	0.0000;
	1721	5381	0.0114	0.0589	0.0064	183	219	240.9	0	0	1	-360	360	0.0000	0.0000	0.0000	0.0000	0.0000	0.0000	0.0000	0.0000;
	1721	17261	0	0.0001	0	128	128	140.8	0	0	1	-360	360	0.0000	0.0000	0.0000	0.0000	0.0000	0.0000	0.0000	0.0000;
	1731	3421	0.001	0.0021	0.0136	140	140	154	0	0	1	-360	360	0.0000	0.0000	0.0000	0.0000	0.0000	0.0000	0.0000	0.0000;
	1741	1851	0.0038	0.0081	0.0295	128	128	140.8	0	0	1	-360	360	0.0000	0.0000	0.0000	0.0000	0.0000	0.0000	0.0000	0.0000;
	1741	4511	0.0013	0.0025	0.0566	119	119	130.9	0	0	1	-360	360	0.0000	0.0000	0.0000	0.0000	0.0000	0.0000	0.0000	0.0000;
	1741	17411	0	0.0001	0	219	219	240.9	0	0	1	-360	360	0.0000	0.0000	0.0000	0.0000	0.0000	0.0000	0.0000	0.0000;
	1741	51319	0.0002	0.0004	0.0001	137	166	182.6	0	0	1	-360	360	0.0000	0.0000	0.0000	0.0000	0.0000	0.0000	0.0000	0.0000;
	1742	2202	0.0049	0.0361	0.0544	534	534	587.4	0	0	1	-360	360	0.0000	0.0000	0.0000	0.0000	0.0000	0.0000	0.0000	0.0000;
	1742	3122	0.0004	0.0045	0.3148	593	593	652.3	0	0	1	-360	360	0.0000	0.0000	0.0000	0.0000	0.0000	0.0000	0.0000	0.0000;
	1742	17431	0	0.0001	0	534	534	587.4	0	0	1	-360	360	0.0000	0.0000	0.0000	0.0000	0.0000	0.0000	0.0000	0.0000;
	1742	17462	0	0.0001	0	534	534	587.4	0	0	1	-360	360	0.0000	0.0000	0.0000	0.0000	0.0000	0.0000	0.0000	0.0000;
	1791	4201	0.0097	0.031	0.0032	166	166	182.6	0	0	1	-360	360	0.0000	0.0000	0.0000	0.0000	0.0000	0.0000	0.0000	0.0000;
	1791	4481	0.03	0.0665	0.0062	128	128	140.8	0	0	1	-360	360	0.0000	0.0000	0.0000	0.0000	0.0000	0.0000	0.0000	0.0000;
	1801	4111	0.0136	0.045	0.0272	130	130	143	0	0	1	-360	360	0.0000	0.0000	0.0000	0.0000	0.0000	0.0000	0.0000	0.0000;
	1801	17411	0.0134	0.0417	0.0604	130	130	143	0	0	1	-360	360	0.0000	0.0000	0.0000	0.0000	0.0000	0.0000	0.0000	0.0000;
	1821	3501	0.0951	0.2216	0.021	126	126	138.6	0	0	1	-360	360	0.0000	0.0000	0.0000	0.0000	0.0000	0.0000	0.0000	0.0000;
	1831	2091	0.0271	0.0868	0.0089	166	166	182.6	0	0	1	-360	360	0.0000	0.0000	0.0000	0.0000	0.0000	0.0000	0.0000	0.0000;
	1841	3641	0.0051	0.026	0.0029	219	219	240.9	0	0	1	-360	360	0.0000	0.0000	0.0000	0.0000	0.0000	0.0000	0.0000	0.0000;
	1841	5501	0.0222	0.0711	0.0073	137	166	182.6	0	0	1	-360	360	0.0000	0.0000	0.0000	0.0000	0.0000	0.0000	0.0000	0.0000;
	1851	24819	0.0035	0.0076	0.0008	128	128	140.8	0	0	1	-360	360	0.0000	0.0000	0.0000	0.0000	0.0000	0.0000	0.0000	0.0000;
	1861	2521	0.0053	0.0117	0.0011	125	125	137.5	0	0	1	-360	360	0.0000	0.0000	0.0000	0.0000	0.0000	0.0000	0.0000	0.0000;
	1861	2521	0.0052	0.0114	0.0011	125	125	137.5	0	0	1	-360	360	0.0000	0.0000	0.0000	0.0000	0.0000	0.0000	0.0000	0.0000;
	1861	10619	0.0216	0.0691	0.0071	166	166	182.6	0	0	1	-360	360	0.0000	0.0000	0.0000	0.0000	0.0000	0.0000	0.0000	0.0000;
	1871	2581	0.0034	0.0127	0.0382	124	124	136.4	0	0	1	-360	360	0.0000	0.0000	0.0000	0.0000	0.0000	0.0000	0.0000	0.0000;
	1871	20411	0.0009	0.0043	0.0196	130	130	143	0	0	1	-360	360	0.0000	0.0000	0.0000	0.0000	0.0000	0.0000	0.0000	0.0000;
	1881	2881	0.0467	0.1032	0.0096	128	128	140.8	0	0	1	-360	360	0.0000	0.0000	0.0000	0.0000	0.0000	0.0000	0.0000	0.0000;
	1881	3281	0.0385	0.1231	0.0126	166	166	182.6	0	0	1	-360	360	0.0000	0.0000	0.0000	0.0000	0.0000	0.0000	0.0000	0.0000;
	1881	4021	0.0142	0.0731	0.008	219	219	240.9	0	0	1	-360	360	0.0000	0.0000	0.0000	0.0000	0.0000	0.0000	0.0000	0.0000;
	1891	2041	0.0232	0.1199	0.013	219	219	240.9	0	0	1	-360	360	0.0000	0.0000	0.0000	0.0000	0.0000	0.0000	0.0000	0.0000;
	1891	4501	0.0006	0.003	0.0004	219	219	240.9	0	0	1	-360	360	0.0000	0.0000	0.0000	0.0000	0.0000	0.0000	0.0000	0.0000;
	1901	3341	0.0084	0.0186	0.0018	128	128	140.8	0	0	1	-360	360	0.0000	0.0000	0.0000	0.0000	0.0000	0.0000	0.0000	0.0000;
	1901	3341	0.0082	0.0186	0.0017	128	128	140.8	0	0	1	-360	360	0.0000	0.0000	0.0000	0.0000	0.0000	0.0000	0.0000	0.0000;
	1901	50619	0.0274	0.0606	0.0057	68	128	140.8	0	0	1	-360	360	0.0000	0.0000	0.0000	0.0000	0.0000	0.0000	0.0000	0.0000;
	1921	1961	0.0245	0.0543	0.0182	128	128	140.8	0	0	1	-360	360	0.0000	0.0000	0.0000	0.0000	0.0000	0.0000	0.0000	0.0000;
	1921	4341	0.0035	0.0079	0.0008	31	128	140.8	0	0	1	-360	360	0.0000	0.0000	0.0000	0.0000	0.0000	0.0000	0.0000	0.0000;
	1921	4351	0.0033	0.0076	0.0007	31	128	140.8	0	0	1	-360	360	0.0000	0.0000	0.0000	0.0000	0.0000	0.0000	0.0000	0.0000;
	1921	4721	0.01	0.0236	0.0033	128	128	140.8	0	0	1	-360	360	0.0000	0.0000	0.0000	0.0000	0.0000	0.0000	0.0000	0.0000;
	1921	5481	0.0272	0.0615	0.0058	128	128	140.8	0	0	1	-360	360	0.0000	0.0000	0.0000	0.0000	0.0000	0.0000	0.0000	0.0000;
	1931	4371	0.0176	0.0907	0.0099	219	219	240.9	0	0	1	-360	360	0.0000	0.0000	0.0000	0.0000	0.0000	0.0000	0.0000	0.0000;
	1931	4981	0.0126	0.065	0.0071	219	219	240.9	0	0	1	-360	360	0.0000	0.0000	0.0000	0.0000	0.0000	0.0000	0.0000	0.0000;
	1941	2401	0.0151	0.0483	0.005	166	166	182.6	0	0	1	-360	360	0.0000	0.0000	0.0000	0.0000	0.0000	0.0000	0.0000	0.0000;
...
];

%%-----  OPF Data  -----%%
%% generator cost data
%	1	startup	shutdown	n	x1	y1	...	xn	yn
%	2	startup	shutdown	n	c(n-1)	...	c0
mpc.gencost = [
	2	0	0	3	0.01	0.1	10;
	2	0	0	3	0.01	0.1	10;
	2	0	0	3	0.01	0.1	10;
	2	0	0	3	0.01	0.1	10;
	2	0	0	3	0.01	0.1	10;
	2	0	0	3	0.01	0.1	10;
	2	0	0	3	0.01	0.1	10;
	2	0	0	3	0.01	0.1	10;
	2	0	0	3	0.01	0.1	10;
	2	0	0	3	0.01	0.1	10;
	2	0	0	3	0.01	0.1	10;
	2	0	0	3	0.01	0.1	10;
	2	0	0	3	0.01	0.1	10;
	2	0	0	3	0.01	0.1	10;
	2	0	0	3	0.01	0.1	10;
	2	0	0	3	0.01	0.1	10;
	2	0	0	3	0.01	0.1	10;
	2	0	0	3	0.01	0.1	10;
	2	0	0	3	0.01	0.1	10;
	2	0	0	3	0.01	0.1	10;
	2	0	0	3	0.01	0.1	10;
	2	0	0	3	0.01	0.1	10;
	2	0	0	3	0.01	0.1	10;
	2	0	0	3	0.01	0.1	10;
	2	0	0	3	0.01	0.1	10;
	2	0	0	3	0.01	0.1	10;
	2	0	0	3	0.01	0.1	10;
	2	0	0	3	0.01	0.1	10;
	2	0	0	3	0.01	0.1	10;
	2	0	0	3	0.01	0.1	10;
	2	0	0	3	0.01	0.1	10;
	2	0	0	3	0.01	0.1	10;
	2	0	0	3	0.01	0.1	10;
	2	0	0	3	0.01	0.1	10;
	2	0	0	3	0.01	0.1	10;
	2	0	0	3	0.01	0.1	10;
	2	0	0	3	0.01	0.1	10;
	2	0	0	3	0.01	0.1	10;
	2	0	0	3	0.01	0.1	10;
	2	0	0	3	0.01	0.1	10;
	2	0	0	3	0.01	0.1	10;
	2	0	0	3	0.01	0.1	10;
	2	0	0	3	0.01	0.1	10;
	2	0	0	3	0.01	0.1	10;
	2	0	0	3	0.01	0.1	10;
	2	0	0	3	0.01	0.1	10;
	2	0	0	3	0.01	0.1	10;
	2	0	0	3	0.01	0.1	10;
	2	0	0	3	0.01	0.1	10;
	2	0	0	3	0.01	0.1	10;
	2	0	0	3	0.01	0.1	10;
	2	0	0	3	0.01	0.1	10;
	2	0	0	3	0.01	0.1	10;
	2	0	0	3	0.01	0.1	10;
	2	0	0	3	0.01	0.1	10;
	2	0	0	3	0.01	0.1	10;
	2	0	0	3	0.01	0.1	10;
	2	0	0	3	0.01	0.1	10;
	2	0	0	3	0.01	0.1	10;
	2	0	0	3	0.01	0.1	10;
	2	0	0	3	0.01	0.1	10;
	2	0	0	3	0.01	0.1	10;
	2	0	0	3	0.01	0.1	10;
	2	0	0	3	0.01	0.1	10;
	2	0	0	3	0.01	0.1	10;
	2	0	0	3	0.01	0.1	10;
	2	0	0	3	0.01	0.1	10;
	2	0	0	3	0.01	0.1	10;
	2	0	0	3	0.01	0.1	10;
	2	0	0	3	0.01	0.1	10;
	2	0	0	3	0.01	0.1	10;
	2	0	0	3	0.01	0.1	10;
	2	0	0	3	0.01	0.1	10;
	2	0	0	3	0.01	0.1	10;
	2	0	0	3	0.01	0.1	10;
	2	0	0	3	0.01	0.1	10;
	2	0	0	3	0.01	0.1	10;
	2	0	0	3	0.01	0.1	10;
	2	0	0	3	0.01	0.1	10;
	2	0	0	3	0.01	0.1	10;
	2	0	0	3	0.01	0.1	10;
	2	0	0	3	0.01	0.1	10;
	2	0	0	3	0.01	0.1	10;
	2	0	0	3	0.01	0.1	10;
	2	0	0	3	0.01	0.1	10;
	2	0	0	3	0.01	0.1	10;
	2	0	0	3	0.01	0.1	10;
	2	0	0	3	0.01	0.1	10;
	2	0	0	3	0.01	0.1	10;
	2	0	0	3	0.01	0.1	10;
	2	0	0	3	0.01	0.1	10;
	2	0	0	3	0.01	0.1	10;
	2	0	0	3	0.01	0.1	10;
	2	0	0	3	0.01	0.1	10;
	2	0	0	3	0.01	0.1	10;
	2	0	0	3	0.01	0.1	10;
	2	0	0	3	0.01	0.1	10;
	2	0	0	3	0.01	0.1	10;
	2	0	0	3	0.01	0.1	10;
	2	0	0	3	0.01	0.1	10;
	2	0	0	3	0.01	0.1	10;
	2	0	0	3	0.01	0.1	10;
	2	0	0	3	0.01	0.1	10;
	2	0	0	3	0.01	0.1	10;
	2	0	0	3	0.01	0.1	10;
	2	0	0	3	0.01	0.1	10;
	2	0	0	3	0.01	0.1	10;
	2	0	0	3	0.01	0.1	10;
	2	0	0	3	0.01	0.1	10;
	2	0	0	3	0.01	0.1	10;
	2	0	0	3	0.01	0.1	10;
	2	0	0	3	0.01	0.1	10;
	2	0	0	3	0.01	0.1	10;
	2	0	0	3	0.01	0.1	10;
	2	0	0	3	0.01	0.1	10;
	2	0	0	3	0.01	0.1	10;
	2	0	0	3	0.01	0.1	10;
	2	0	0	3	0.01	0.1	10;
	2	0	0	3	0.01	0.1	10;
	2	0	0	3	0.01	0.1	10;
	2	0	0	3	0.01	0.1	10;
	2	0	0	3	0.01	0.1	10;
	2	0	0	3	0.01	0.1	10;
	2	0	0	3	0.01	0.1	10;
	2	0	0	3	0.01	0.1	10;
	2	0	0	3	0.01	0.1	10;
	2	0	0	3	0.01	0.1	10;
	2	0	0	3	0.01	0.1	10;
	2	0	0	3	0.01	0.1	10;
	2	0	0	3	0.01	0.1	10;
	2	0	0	3	0.01	0.1	10;
	2	0	0	3	0.01	0.1	10;
	2	0	0	3	0.01	0.1	10;
	2	0	0	3	0.01	0.1	10;
	2	0	0	3	0.01	0.1	10;
	2	0	0	3	0.01	0.1	10;
	2	0	0	3	0.01	0.1	10;
	2	0	0	3	0.01	0.1	10;
	2	0	0	3	0.01	0.1	10;
	2	0	0	3	0.01	0.1	10;
	2	0	0	3	0.01	0.1	10;
	2	0	0	3	0.01	0.1	10;
	2	0	0	3	0.01	0.1	10;
	2	0	0	3	0.01	0.1	10;
	2	0	0	3	0.01	0.1	10;
	2	0	0	3	0.01	0.1	10;
	2	0	0	3	0.01	0.1	10;
	2	0	0	3	0.01	0.1	10;
	2	0	0	3	0.01	0.1	10;
	2	0	0	3	0.01	0.1	10;
	2	0	0	3	0.01	0.1	10;
	2	0	0	3	0.01	0.1	10;
	2	0	0	3	0.01	0.1	10;
	2	0	0	3	0.01	0.1	10;
	2	0	0	3	0.01	0.1	10;
	2	0	0	3	0.01	0.1	10;
	2	0	0	3	0.01	0.1	10;
	2	0	0	3	0.01	0.1	10;
	2	0	0	3	0.01	0.1	10;
	2	0	0	3	0.01	0.1	10;
	2	0	0	3	0.01	0.1	10;
	2	0	0	3	0.01	0.1	10;
	2	0	0	3	0.01	0.1	10;
	2	0	0	3	0.01	0.1	10;
	2	0	0	3	0.01	0.1	10;
	2	0	0	3	0.01	0.1	10;
	2	0	0	3	0.01	0.1	10;
	2	0	0	3	0.01	0.1	10;
	2	0	0	3	0.01	0.1	10;
	2	0	0	3	0.01	0.1	10;
	2	0	0	3	0.01	0.1	10;
	2	0	0	3	0.01	0.1	10;
	2	0	0	3	0.01	0.1	10;
	2	0	0	3	0.01	0.1	10;
	2	0	0	3	0.01	0.1	10;
	2	0	0	3	0.01	0.1	10;
	2	0	0	3	0.01	0.1	10;
	2	0	0	3	0.01	0.1	10;
	2	0	0	3	0.01	0.1	10;
	2	0	0	3	0.01	0.1	10;
	2	0	0	3	0.01	0.1	10;
	2	0	0	3	0.01	0.1	10;
	2	0	0	3	0.01	0.1	10;
	2	0	0	3	0.01	0.1	10;
	2	0	0	3	0.01	0.1	10;
	2	0	0	3	0.01	0.1	10;
	2	0	0	3	0.01	0.1	10;
	2	0	0	3	0.01	0.1	10;
	2	0	0	3	0.01	0.1	10;
	2	0	0	3	0.01	0.1	10;
	2	0	0	3	0.01	0.1	10;
	2	0	0	3	0.01	0.1	10;
	2	0	0	3	0.01	0.1	10;
	2	0	0	3	0.01	0.1	10;
	2	0	0	3	0.01	0.1	10;
	2	0	0	3	0.01	0.1	10;
	2	0	0	3	0.01	0.1	10;
	2	0	0	3	0.01	0.1	10;
	2	0	0	3	0.01	0.1	10;
	2	0	0	3	0.01	0.1	10;
...
];
